[General]

network = DCTCPIncast

parallel-simulation = false
warnings = true
sim-time-limit = 3.3s

cmdenv-module-messages = true # for normal (non-express) mode only
cmdenv-event-banners = true   # for normal (non-express) mode only

tkenv-plugin-path = ../../../etc/plugins

**.e*.datarate = 10Mbps
**.e*.delay = 12ms

#
# Network specific settings
#

# set inet_addr, Mask, MTU ( = 1500), default route (=router)
#**.client.routingFile = "client.mrt"
#**.router.routingFile = "router.mrt"
#**.server.routingFile = "server.mrt"

# ip settings
**.ip.procDelay = 0s
**.IPForward = false

# hookType settings
**.ppp[*].numOutputHooks = 1
**.ppp[*].outputHook[0].typename = "OrdinalBasedDropper" # Nop | ThruputMeter | OrdinalBasedDropper | OrdinalBasedDuplicator

# ARP settings
**.arp.retryTimeout = 1s
**.arp.retryCount = 3
**.arp.cacheTimeout = 100s


**.tcp.delayedAcksEnabled = false                    # delayed ACK algorithm (RFC 1122) enabled/disabled
**.tcp.nagleEnabled = false                           # Nagle's algorithm (RFC 896) enabled/disabled
**.tcp.limitedTransmitEnabled = false                # Limited Transmit algorithm (RFC 3042) enabled/disabled (can be used for TCPReno/TCPTahoe/TCPNewReno/TCPNoCongestionControl)
**.tcp.increasedIWEnabled = false                    # Increased Initial Window (RFC 3390) enabled/disabled
**.tcp.sackSupport = true                            # Selective Acknowledgment (RFC 2018, 2883, 3517) support (header option) (SACK will be enabled for a connection if both endpoints support it)
**.tcp.windowScalingSupport = true                  # Window Scale (RFC 1323) support (header option) (WS will be enabled for a connection if both endpoints support it)
**.tcp.timestampSupport = false                      # Timestamps (RFC 1323) support (header option) (TS will be enabled for a connection if both endpoints support it)
**.tcp.tcpAlgorithmClass = "TCPReno"                 # TCPReno/TCPTahoe/TCPNewReno/TCPNoCongestionControl/DumbTCP
**.tcp.advertisedWindow = 350000
**.tcp.recordStats = true
**.tcp.mss = 1460

#**.tcp2.delayedAcksEnabled = false                    # delayed ACK algorithm (RFC 1122) enabled/disabled
#**.tcp2.nagleEnabled = false                           # Nagle's algorithm (RFC 896) enabled/disabled
#**.tcp2.limitedTransmitEnabled = false                # Limited Transmit algorithm (RFC 3042) enabled/disabled (can be used for TCPReno/TCPTahoe/TCPNewReno/TCPNoCongestionControl)
#**.tcp2.increasedIWEnabled = false                    # Increased Initial Window (RFC 3390) enabled/disabled
#**.tcp2.sackSupport = true                            # Selective Acknowledgment (RFC 2018, 2883, 3517) support (header option) (SACK will be enabled for a connection if both endpoints support it)
#**.tcp2.windowScalingSupport = false                  # Window Scale (RFC 1323) support (header option) (WS will be enabled for a connection if both endpoints support it)
#**.tcp2.timestampSupport = false                      # Timestamps (RFC 1323) support (header option) (TS will be enabled for a connection if both endpoints support it)
#**.tcp2.tcpAlgorithmClass = "TCPReno"                 # TCPReno/TCPTahoe/TCPNewReno/TCPNoCongestionControl/DumbTCP
#**.tcp2.advertisedWindow = 65535
#**.tcp2.recordStats = true

DCTCPIncast.ldelay = 12ms
#tcpValidation.delay = 25ms# ${1.25ms, 6.25ms, 12.5ms, 18.75ms, 25ms, 31.25ms, 37.5ms}
#**.ethg$o[*].channel.delay = 0.1s
#**.ppp[*].channel.delay = 0.1s

## tcp apps
**.client21.numTcpApps = 20
**.client21.tcpApp[*].typename = "TCPSinkApp"
**.client21.tcpApp[0].localPort = 1000
**.client21.tcpApp[1].localPort = 1001
**.client21.tcpApp[2].localPort = 1002
**.client21.tcpApp[3].localPort = 1003
**.client21.tcpApp[4].localPort = 1004
**.client21.tcpApp[5].localPort = 1005
**.client21.tcpApp[6].localPort = 1006
**.client21.tcpApp[7].localPort = 1007
**.client21.tcpApp[8].localPort = 1008
**.client21.tcpApp[9].localPort = 1009
**.client21.tcpApp[10].localPort = 10010
**.client21.tcpApp[11].localPort = 10011
**.client21.tcpApp[12].localPort = 10012
**.client21.tcpApp[13].localPort = 10013
**.client21.tcpApp[14].localPort = 10014
**.client21.tcpApp[15].localPort = 10015
**.client21.tcpApp[16].localPort = 10016
**.client21.tcpApp[17].localPort = 10017
**.client21.tcpApp[18].localPort = 10018
**.client21.tcpApp[19].localPort = 10019
#**.tcp.windowScalingSupport = true
#**.tcp.advertisedWindow = 350000
**.client1*.numTcpApps = 1
**.client1*.tcpApp[*].typename = "TCPSessionApp"
**.client1*.tcpApp[0].active = true
**.client1*.tcpApp[0].localPort = -1
**.client1*.tcpApp[0].connectAddress = "client21"
**.client1*.tcpApp[0].tOpen = 1s
**.client1*.tcpApp[0].sendBytes = 1000MiB
**.client1*.tcpApp[0].sendScript = ""
**.client1*.tcpApp[0].tClose = 0s


**.client11.tcpApp[0].connectPort = 1000
**.client12.tcpApp[0].connectPort = 1001
**.client13.tcpApp[0].connectPort = 1002
**.client14.tcpApp[0].connectPort = 1003
**.client15.tcpApp[0].connectPort = 1004
**.client16.tcpApp[0].connectPort = 1005
**.client17.tcpApp[0].connectPort = 1006
**.client18.tcpApp[0].connectPort = 1007
**.client19.tcpApp[0].connectPort = 1008
**.client110.tcpApp[0].connectPort = 1009
**.client111.tcpApp[0].connectPort = 10010
**.client112.tcpApp[0].connectPort = 10011
**.client113.tcpApp[0].connectPort = 10012
**.client114.tcpApp[0].connectPort = 10013
**.client115.tcpApp[0].connectPort = 10014
**.client116.tcpApp[0].connectPort = 10015
**.client117.tcpApp[0].connectPort = 10016
**.client118.tcpApp[0].connectPort = 10017
**.client119.tcpApp[0].connectPort = 10018
**.client120.tcpApp[0].connectPort = 10019

#**.routerCore.ppp[*].queueType = "DropTailQueue" # in routers
#**.routerCore.ppp[*].queue.frameCapacity = 34

#**.ppp[*].queueType = "REDDropper"
**.routerCore.ppp[20].queueType           = "inet.examples.netperfmeter.REDQueue"
**.routerCore.ppp[20].queue.red.wq        = 1.0
**.routerCore.ppp[20].queue.red.minths     = "0"
**.routerCore.ppp[20].queue.red.maxths     = "6"
**.routerCore.ppp[20].queue.red.maxps      = "0.0"
**.routerCore.ppp[20].queue.red.pkrates    = "1.0"
**.routerCore.ppp[20].queue.red.marks = "1"
**.routerCore.ppp[20].queueframeCapacity = 500
#**.routerCore.ppp[*].queueType = "REDDropper" # in routers
#**.routerCore.ppp[*].queue.frameCapacity = 65
# NIC settings
**.ppp[*].queueType = "DropTailQueue"
**.ppp[*].queue.frameCapacity = 500    # packets



############################################################## DCTCP-Incast
[Config DCTCP-Incast-2]
**.client11.tcpApp[0].tSend = 3s
**.client12.tcpApp[0].tSend = 3s
**.client13.tcpApp[0].tSend = 62s
**.client14.tcpApp[0].tSend = 62s
**.client15.tcpApp[0].tSend = 62s
**.client16.tcpApp[0].tSend = 62s
**.client17.tcpApp[0].tSend = 62s
**.client18.tcpApp[0].tSend = 62s
**.client19.tcpApp[0].tSend = 62s
**.client110.tcpApp[0].tSend = 62s
**.client111.tcpApp[0].tSend = 62s
**.client112.tcpApp[0].tSend = 62s
**.client113.tcpApp[0].tSend = 62s
**.client114.tcpApp[0].tSend = 62s
**.client115.tcpApp[0].tSend = 62s
**.client116.tcpApp[0].tSend = 62s
**.client117.tcpApp[0].tSend = 62s
**.client118.tcpApp[0].tSend = 62s
**.client119.tcpApp[0].tSend = 62s
**.client120.tcpApp[0].tSend = 62s

[Config DCTCP-Incast-1LG]
**.client11.tcpApp[0].tSend = 3s
**.client12.tcpApp[0].tSend = 62s
**.client13.tcpApp[0].tSend = 62s
**.client14.tcpApp[0].tSend = 62s
**.client15.tcpApp[0].tSend = 62s
**.client16.tcpApp[0].tSend = 62s
**.client17.tcpApp[0].tSend = 62s
**.client18.tcpApp[0].tSend = 62s
**.client19.tcpApp[0].tSend = 62s
**.client110.tcpApp[0].tSend = 62s
**.client111.tcpApp[0].tSend = 62s
**.client112.tcpApp[0].tSend = 62s
**.client113.tcpApp[0].tSend = 62s
**.client114.tcpApp[0].tSend = 62s
**.client115.tcpApp[0].tSend = 62s
**.client116.tcpApp[0].tSend = 62s
**.client117.tcpApp[0].tSend = 62s
**.client118.tcpApp[0].tSend = 62s
**.client119.tcpApp[0].tSend = 62s
**.client120.tcpApp[0].tSend = 62s

**.routerCore.ppp[20].queue.red.maxths     = "1"

[Config DCTCP-Incast-1LGHigh]
seed-set=${2}
#**.e*.datarate = 40Mbps
**.e*.datarate = 10Gbps
**.e*.delay = 50us

**.tcp.sackSupport = false
**.tcp.tcpAlgorithmClass = "LGTCP"

**.client11.tcpApp[0].tSend = 3s
**.client12.tcpApp[0].tSend = 62s
**.client13.tcpApp[0].tSend = 62s
**.client14.tcpApp[0].tSend = 62s
**.client15.tcpApp[0].tSend = 62s
**.client16.tcpApp[0].tSend = 62s
**.client17.tcpApp[0].tSend = 62s
**.client18.tcpApp[0].tSend = 62s
**.client19.tcpApp[0].tSend = 62s
**.client110.tcpApp[0].tSend = 62s
**.client111.tcpApp[0].tSend = 62s
**.client112.tcpApp[0].tSend = 62s
**.client113.tcpApp[0].tSend = 62s
**.client114.tcpApp[0].tSend = 62s
**.client115.tcpApp[0].tSend = 62s
**.client116.tcpApp[0].tSend = 62s
**.client117.tcpApp[0].tSend = 62s
**.client118.tcpApp[0].tSend = 62s
**.client119.tcpApp[0].tSend = 62s
**.client120.tcpApp[0].tSend = 62s

#**.routerCore.ppp[20].queue.red.maxths     = "1"

**.routerCore.ppp[20].queueType           = "inet.examples.netperfmeter.REDQueue"
**.routerCore.ppp[20].queue.red.wq        = 1.0
**.routerCore.ppp[20].queue.red.minths     = "0"
**.routerCore.ppp[20].queue.red.maxths     = "1"
**.routerCore.ppp[20].queue.red.maxps      = "1.0"
**.routerCore.ppp[20].queue.red.pkrates    = "1.0"
**.routerCore.ppp[20].queue.red.marks = "1"
**.routerCore.ppp[20].queueframeCapacity = 500

[Config DCTCP-Incast-1DCTCPHigh]
seed-set=${2}

**.e21.datarate = 5Gbps

**.e*.datarate = 10Gbps
**.e*.delay = 50us

**.tcp.sackSupport = false
**.tcp.tcpAlgorithmClass = "DCTCP"

**.client11.tcpApp[0].tSend = 3s
**.client12.tcpApp[0].tSend = 62s
**.client13.tcpApp[0].tSend = 62s
**.client14.tcpApp[0].tSend = 62s
**.client15.tcpApp[0].tSend = 62s
**.client16.tcpApp[0].tSend = 62s
**.client17.tcpApp[0].tSend = 62s
**.client18.tcpApp[0].tSend = 62s
**.client19.tcpApp[0].tSend = 62s
**.client110.tcpApp[0].tSend = 62s
**.client111.tcpApp[0].tSend = 62s
**.client112.tcpApp[0].tSend = 62s
**.client113.tcpApp[0].tSend = 62s
**.client114.tcpApp[0].tSend = 62s
**.client115.tcpApp[0].tSend = 62s
**.client116.tcpApp[0].tSend = 62s
**.client117.tcpApp[0].tSend = 62s
**.client118.tcpApp[0].tSend = 62s
**.client119.tcpApp[0].tSend = 62s
**.client120.tcpApp[0].tSend = 62s

#**.routerCore.ppp[20].queue.red.maxths     = "1"

**.routerCore.ppp[20].queueType           = "inet.examples.netperfmeter.REDQueue"
**.routerCore.ppp[20].queue.red.wq        = 1.0
**.routerCore.ppp[20].queue.red.minths     = "19"
**.routerCore.ppp[20].queue.red.maxths     = "20"
**.routerCore.ppp[20].queue.red.maxps      = "1.0"
**.routerCore.ppp[20].queue.red.pkrates    = "1.0"
**.routerCore.ppp[20].queue.red.marks = "1"
**.routerCore.ppp[20].queueframeCapacity = 500


[Config DCTCP-Incast-5LG]
**.client11.tcpApp[0].tSend = 3s
**.client12.tcpApp[0].tSend = 3s
**.client13.tcpApp[0].tSend = 3s
**.client14.tcpApp[0].tSend = 3s
**.client15.tcpApp[0].tSend = 3s
**.client16.tcpApp[0].tSend = 62s
**.client17.tcpApp[0].tSend = 62s
**.client18.tcpApp[0].tSend = 62s
**.client19.tcpApp[0].tSend = 62s
**.client110.tcpApp[0].tSend = 62s
**.client111.tcpApp[0].tSend = 62s
**.client112.tcpApp[0].tSend = 62s
**.client113.tcpApp[0].tSend = 62s
**.client114.tcpApp[0].tSend = 62s
**.client115.tcpApp[0].tSend = 62s
**.client116.tcpApp[0].tSend = 62s
**.client117.tcpApp[0].tSend = 62s
**.client118.tcpApp[0].tSend = 62s
**.client119.tcpApp[0].tSend = 62s
**.client120.tcpApp[0].tSend = 62s

**.routerCore.ppp[20].queue.red.maxths     = "1"

[Config DCTCP-Incast-10LG]
**.client11.tcpApp[0].tSend = 3s
**.client12.tcpApp[0].tSend = 3s
**.client13.tcpApp[0].tSend = 3s
**.client14.tcpApp[0].tSend = 3s
**.client15.tcpApp[0].tSend = 3s
**.client16.tcpApp[0].tSend = 3s
**.client17.tcpApp[0].tSend = 3s
**.client18.tcpApp[0].tSend = 3s
**.client19.tcpApp[0].tSend = 3s
**.client110.tcpApp[0].tSend = 9.9s
**.client111.tcpApp[0].tSend = 62s
**.client112.tcpApp[0].tSend = 62s
**.client113.tcpApp[0].tSend = 62s
**.client114.tcpApp[0].tSend = 62s
**.client115.tcpApp[0].tSend = 62s
**.client116.tcpApp[0].tSend = 62s
**.client117.tcpApp[0].tSend = 62s
**.client118.tcpApp[0].tSend = 62s
**.client119.tcpApp[0].tSend = 62s
**.client120.tcpApp[0].tSend = 62s

**.routerCore.ppp[20].queue.red.maxths     = "1"

[Config DCTCP-Incast-20LG]
**.client1*.tcpApp[0].tSend = 3s

**.routerCore.ppp[20].queue.red.maxths     = "1"


[Config DCTCP-Incast-5LGAsymm]
seed-set=${2}
**.e1.datarate = 10Gbps
**.e2.datarate = 10Gbps
**.e3.datarate = 10Gbps
**.e4.datarate = 10Gbps
**.e5.datarate = 10Gbps
**.e21.datarate = 10Gbps
**.e*.datarate = 10Gbps
**.e*.delay = 50us

**.tcp.sackSupport = false
**.tcp.tcpAlgorithmClass = "LGTCP"

**.client11.tcpApp[0].tSend = 3s
**.client11.tcp.ldatarate = 10Gbps
**.client12.tcpApp[0].tSend = 3s
**.client12.tcp.ldatarate = 8Gbps
**.client13.tcpApp[0].tSend = 3s
**.client13.tcp.ldatarate = 6Gbps
**.client14.tcpApp[0].tSend = 3s
**.client14.tcp.ldatarate = 4Gbps
**.client15.tcpApp[0].tSend = 3s
**.client15.tcp.ldatarate = 2Gbps

**.client*.tcp.ldatarate = 10Gbps

**.client16.tcpApp[0].tSend = 62s
**.client17.tcpApp[0].tSend = 62s
**.client18.tcpApp[0].tSend = 62s
**.client19.tcpApp[0].tSend = 62s
**.client110.tcpApp[0].tSend = 62s
**.client111.tcpApp[0].tSend = 62s
**.client112.tcpApp[0].tSend = 62s
**.client113.tcpApp[0].tSend = 62s
**.client114.tcpApp[0].tSend = 62s
**.client115.tcpApp[0].tSend = 62s
**.client116.tcpApp[0].tSend = 62s
**.client117.tcpApp[0].tSend = 62s
**.client118.tcpApp[0].tSend = 62s
**.client119.tcpApp[0].tSend = 62s
**.client120.tcpApp[0].tSend = 62s

#**.routerCore.ppp[20].queue.red.maxths     = "1"

**.routerCore.ppp[20].queueType           = "inet.examples.netperfmeter.REDQueue"
**.routerCore.ppp[20].queue.red.wq        = 1.0
**.routerCore.ppp[20].queue.red.minths     = "0"
**.routerCore.ppp[20].queue.red.maxths     = "1"
**.routerCore.ppp[20].queue.red.maxps      = "1.0"
**.routerCore.ppp[20].queue.red.pkrates    = "1.0"
**.routerCore.ppp[20].queue.red.marks = "1"
**.routerCore.ppp[20].queueframeCapacity = 500


[Config DCTCP-BitDown4]
network = DCTCPBitDown
seed-set=${2}
**.e*.datarate = 10Gbps
**.e*.delay = 50us

**.tcp.sackSupport = false
**.tcp.tcpAlgorithmClass = "LGTCP"

**.client*.tcp.ldatarate = 10Gbps


**.client*.numTcpApps = 1 
**.client1*.tcpApp[0].typename = "TCPSessionApp"
**.client2*.tcpApp[0].typename = "TCPSinkApp"
**.client2*.tcpApp[0].localPort = 1000

**.client1*.tcpApp[0].active = true
**.client1*.tcpApp[0].localPort = -1
**.client1*.tcpApp[0].sendBytes = 100MiB
**.client1*.tcpApp[0].sendScript = ""
**.client1*.tcpApp[0].tClose = 0s
**.client1*.tcpApp[0].connectPort = 1000


**.client11.tcpApp[0].tOpen = 1s
**.client11.tcpApp[0].connectAddress = "client21"
**.client12.tcpApp[0].tOpen = 1s
**.client12.tcpApp[0].connectAddress = "client22"
**.client13.tcpApp[0].tOpen = 1s
**.client13.tcpApp[0].connectAddress = "client23"
**.client14.tcpApp[0].tOpen = 1s
**.client14.tcpApp[0].connectAddress = "client24"

**.client1*.tcpApp[0].tSend = 3.0s


**.routerCore*.ppp[*].queueType           = "inet.examples.netperfmeter.REDQueue"
**.routerCore*.ppp[*].queue.red.wq        = 1.0
**.routerCore*.ppp[*].queue.red.minths     = "0"
**.routerCore*.ppp[*].queue.red.maxths     = "3"
**.routerCore*.ppp[*].queue.red.maxps      = "1.0"
**.routerCore*.ppp[*].queue.red.pkrates    = "1.0"
**.routerCore*.ppp[*].queue.red.marks = "1"
**.routerCore*.ppp[*].queueframeCapacity = 500

[Config DCTCP-BitDown4-2]
network = DCTCPBitDown
seed-set=${2}
**.e*.datarate = 10Gbps
**.e*.delay = 50us

**.tcp.sackSupport = false
**.tcp.tcpAlgorithmClass = "LGTCP"

**.client*.tcp.ldatarate = 10Gbps


**.client*.numTcpApps = 1 
**.client1*.tcpApp[0].typename = "TCPSessionApp"
**.client2*.tcpApp[0].typename = "TCPSinkApp"
**.client2*.tcpApp[0].localPort = 1000

**.client1*.tcpApp[0].active = true
**.client1*.tcpApp[0].localPort = -1
**.client1*.tcpApp[0].sendBytes = 100MiB
**.client1*.tcpApp[0].sendScript = ""
**.client1*.tcpApp[0].tClose = 0s
**.client1*.tcpApp[0].connectPort = 1000


**.client11.tcpApp[0].tOpen = 1s
**.client11.tcpApp[0].connectAddress = "client21"
**.client12.tcpApp[0].tOpen = 1s
**.client12.tcpApp[0].connectAddress = "client22"
**.client13.tcpApp[0].tOpen = 1s
**.client13.tcpApp[0].connectAddress = "client23"
**.client14.tcpApp[0].tOpen = 1s
**.client14.tcpApp[0].connectAddress = "client24"
**.client111.tcpApp[0].tOpen = 1s
**.client111.tcpApp[0].connectAddress = "client211"
**.client112.tcpApp[0].tOpen = 1s
**.client112.tcpApp[0].connectAddress = "client212"

**.client1*.tcpApp[0].tSend = 3.0s


**.routerCore*.ppp[*].queueType           = "inet.examples.netperfmeter.REDQueue"
**.routerCore*.ppp[*].queue.red.wq        = 1.0
**.routerCore*.ppp[*].queue.red.minths     = "0"
**.routerCore*.ppp[*].queue.red.maxths     = "1"
**.routerCore*.ppp[*].queue.red.maxps      = "1.0"
**.routerCore*.ppp[*].queue.red.pkrates    = "1.0"
**.routerCore*.ppp[*].queue.red.marks = "1"
**.routerCore*.ppp[*].queueframeCapacity = 500

[Config DCTCP-BitDown3]
network = DCTCPBitDown3
seed-set=${2}
**.e*.datarate = 10Gbps
**.e*.delay = 50us

**.tcp.sackSupport = false
**.tcp.tcpAlgorithmClass = "LGTCP"

**.client*.tcp.ldatarate = 10Gbps


**.client*.numTcpApps = 1 
**.client1*.tcpApp[0].typename = "TCPSessionApp"
**.client2*.tcpApp[0].typename = "TCPSinkApp"
**.client2*.tcpApp[0].localPort = 1000

**.client1*.tcpApp[0].active = true
**.client1*.tcpApp[0].localPort = -1
**.client1*.tcpApp[0].sendBytes = 100MiB
**.client1*.tcpApp[0].sendScript = ""
**.client1*.tcpApp[0].tClose = 0s
**.client1*.tcpApp[0].connectPort = 1000


**.client11.tcpApp[0].tOpen = 1s
**.client11.tcpApp[0].connectAddress = "client21"
**.client12.tcpApp[0].tOpen = 1s
**.client12.tcpApp[0].connectAddress = "client22"
**.client13.tcpApp[0].tOpen = 1s
**.client13.tcpApp[0].connectAddress = "client23"

**.client1*.tcpApp[0].tSend = 3.0s


**.routerCore*.ppp[*].queueType           = "inet.examples.netperfmeter.REDQueue"
**.routerCore*.ppp[*].queue.red.wq        = 1.0
**.routerCore*.ppp[*].queue.red.minths     = "0"
**.routerCore*.ppp[*].queue.red.maxths     = "3"
**.routerCore*.ppp[*].queue.red.maxps      = "1.0"
**.routerCore*.ppp[*].queue.red.pkrates    = "1.0"
**.routerCore*.ppp[*].queue.red.marks = "1"
**.routerCore*.ppp[*].queueframeCapacity = 500

[Config DCTCP-BitDown3-VR]
network = DCTCPBitDown3
seed-set=${2}
**.e*.datarate = 10Gbps
**.e*.delay = 50us

**.tcp.sackSupport = false
**.tcp.tcpAlgorithmClass = "LGTCP"

**.client*.tcp.ldatarate = 10Gbps


**.client*.numTcpApps = 1 
**.client1*.tcpApp[0].typename = "TCPSessionApp"
**.client2*.tcpApp[0].typename = "TCPSinkApp"
**.client2*.tcpApp[0].localPort = 1000

**.client1*.tcpApp[0].active = true
**.client1*.tcpApp[0].localPort = -1
**.client1*.tcpApp[0].sendBytes = 100MiB
**.client1*.tcpApp[0].sendScript = ""
**.client1*.tcpApp[0].tClose = 0s
**.client1*.tcpApp[0].connectPort = 1000


**.client11.tcpApp[0].tOpen = 1s
**.client11.tcpApp[0].connectAddress = "client21"
**.client12.tcpApp[0].tOpen = 1s
**.client12.tcpApp[0].connectAddress = "client22"
**.client13.tcpApp[0].tOpen = 1s
**.client13.tcpApp[0].connectAddress = "client23"

**.client1*.tcpApp[0].tSend = 3.0s


**.routerCore*.ppp[*].queueType           = "inet.examples.netperfmeter.REDQueue"
**.routerCore*.ppp[*].queue.red.wq        = 1.0
**.routerCore*.ppp[*].queue.red.minths     = "0"
**.routerCore*.ppp[*].queue.red.maxths     = "3"
**.routerCore*.ppp[*].queue.red.maxps      = "1.0"
**.routerCore*.ppp[*].queue.red.pkrates    = "1.0"
**.routerCore*.ppp[*].queue.red.marks = "1"
**.routerCore*.ppp[*].queueframeCapacity = 500

[Config DCTCP-BitDown5]
network = DCTCPBitDown5
seed-set=${2, 3}
**.e*.datarate = 10Gbps
**.e*.delay = 50us

**.tcp.sackSupport = false
**.tcp.tcpAlgorithmClass = "LGTCP"

**.client*.tcp.ldatarate = 10Gbps


**.client*.numTcpApps = 1 
**.client1*.tcpApp[0].typename = "TCPSessionApp"
**.client2*.tcpApp[0].typename = "TCPSinkApp"
**.client2*.tcpApp[0].localPort = 1000

**.client1*.tcpApp[0].active = true
**.client1*.tcpApp[0].localPort = -1
**.client1*.tcpApp[0].sendBytes = 1000MiB
**.client1*.tcpApp[0].sendScript = ""
**.client1*.tcpApp[0].tClose = 0s
**.client1*.tcpApp[0].connectPort = 1000
**.client1*.tcpApp[0].tOpen = 1s
**.client1*.tcpApp[0].tSend = 3.0s

**.client11.tcpApp[0].connectAddress = "client21"
**.client12.tcpApp[0].connectAddress = "client22"
**.client13.tcpApp[0].connectAddress = "client23"
**.client14.tcpApp[0].connectAddress = "client24"
**.client15.tcpApp[0].connectAddress = "client25"

**.routerCore*.ppp[*].queueType           = "inet.examples.netperfmeter.REDQueue"
**.routerCore*.ppp[*].queue.red.wq        = 1
**.routerCore*.ppp[*].queue.red.minths     = "0"
**.routerCore*.ppp[*].queue.red.maxths     = "1"
**.routerCore*.ppp[*].queue.red.maxps      = "1"
**.routerCore*.ppp[*].queue.red.pkrates    = "1.0"
**.routerCore*.ppp[*].queue.red.marks = "1"
**.routerCore*.ppp[*].queueframeCapacity = 500


[Config DCTCP-BitDown5DCTCP]
network = DCTCPBitDown5
seed-set=${2}
**.e*.datarate = 10Gbps
**.e*.delay = 50us

**.tcp.sackSupport = false
**.tcp.tcpAlgorithmClass = "DCTCP"

**.client*.tcp.ldatarate = 10Gbps


**.client*.numTcpApps = 1 
**.client1*.tcpApp[0].typename = "TCPSessionApp"
**.client2*.tcpApp[0].typename = "TCPSinkApp"
**.client2*.tcpApp[0].localPort = 1000

**.client1*.tcpApp[0].active = true
**.client1*.tcpApp[0].localPort = -1
**.client1*.tcpApp[0].sendBytes = 1000MiB
**.client1*.tcpApp[0].sendScript = ""
**.client1*.tcpApp[0].tClose = 0s
**.client1*.tcpApp[0].connectPort = 1000
**.client1*.tcpApp[0].tOpen = 1s
**.client1*.tcpApp[0].tSend = 3.0s

**.client11.tcpApp[0].connectAddress = "client21"
**.client12.tcpApp[0].connectAddress = "client22"
**.client13.tcpApp[0].connectAddress = "client23"
**.client14.tcpApp[0].connectAddress = "client24"
**.client15.tcpApp[0].connectAddress = "client25"

**.routerCore*.ppp[*].queueType           = "inet.examples.netperfmeter.REDQueue"
**.routerCore*.ppp[*].queue.red.wq        = 1.0
**.routerCore*.ppp[*].queue.red.minths     = "70"
**.routerCore*.ppp[*].queue.red.maxths     = "71"
**.routerCore*.ppp[*].queue.red.maxps      = "1.0"
**.routerCore*.ppp[*].queue.red.pkrates    = "1.0"
**.routerCore*.ppp[*].queue.red.marks = "1"
**.routerCore*.ppp[*].queueframeCapacity = 500


[Config DCTCP-BitDown5-VR]
network = DCTCPBitDown5
seed-set=${2}
**.e4.datarate = 5Gbps
**.e5.datarate = 5Gbps
**.e14.datarate = 5Gbps

**.e*.datarate = 10Gbps
**.e*.delay = 50us

**.tcp.sackSupport = false
**.tcp.tcpAlgorithmClass = "LGTCP"

**.client*.tcp.ldatarate = 10Gbps


**.client*.numTcpApps = 1 
**.client1*.tcpApp[0].typename = "TCPSessionApp"
**.client2*.tcpApp[0].typename = "TCPSinkApp"
**.client2*.tcpApp[0].localPort = 1000

**.client1*.tcpApp[0].active = true
**.client1*.tcpApp[0].localPort = -1
**.client1*.tcpApp[0].sendBytes = 1000MiB
**.client1*.tcpApp[0].sendScript = ""
**.client1*.tcpApp[0].tClose = 0s
**.client1*.tcpApp[0].connectPort = 1000
**.client1*.tcpApp[0].tOpen = 1s
**.client1*.tcpApp[0].tSend = 3.0s

**.client11.tcpApp[0].connectAddress = "client21"
**.client12.tcpApp[0].connectAddress = "client22"
**.client13.tcpApp[0].connectAddress = "client23"
**.client14.tcpApp[0].connectAddress = "client24"
**.client15.tcpApp[0].connectAddress = "client25"

**.routerCore*.ppp[*].queueType           = "inet.examples.netperfmeter.REDQueue"
**.routerCore*.ppp[*].queue.red.wq        = 1.0
**.routerCore*.ppp[*].queue.red.minths     = "0"
**.routerCore*.ppp[*].queue.red.maxths     = "3"
**.routerCore*.ppp[*].queue.red.maxps      = "1.0"
**.routerCore*.ppp[*].queue.red.pkrates    = "1.0"
**.routerCore*.ppp[*].queue.red.marks = "1"
**.routerCore*.ppp[*].queueframeCapacity = 500


[Config DCTCP-BitDown5DCTCP-VR]
network = DCTCPBitDown5
seed-set=${2}
**.e4.datarate = 5Gbps
**.e5.datarate = 5Gbps
**.e14.datarate = 5Gbps

**.e*.datarate = 10Gbps
**.e*.delay = 50us

**.tcp.sackSupport = false
**.tcp.tcpAlgorithmClass = "DCTCP"

**.client*.tcp.ldatarate = 10Gbps


**.client*.numTcpApps = 1 
**.client1*.tcpApp[0].typename = "TCPSessionApp"
**.client2*.tcpApp[0].typename = "TCPSinkApp"
**.client2*.tcpApp[0].localPort = 1000

**.client1*.tcpApp[0].active = true
**.client1*.tcpApp[0].localPort = -1
**.client1*.tcpApp[0].sendBytes = 1000MiB
**.client1*.tcpApp[0].sendScript = ""
**.client1*.tcpApp[0].tClose = 0s
**.client1*.tcpApp[0].connectPort = 1000
**.client1*.tcpApp[0].tOpen = 1s
**.client1*.tcpApp[0].tSend = 3.0s

**.client11.tcpApp[0].connectAddress = "client21"
**.client12.tcpApp[0].connectAddress = "client22"
**.client13.tcpApp[0].connectAddress = "client23"
**.client14.tcpApp[0].connectAddress = "client24"
**.client15.tcpApp[0].connectAddress = "client25"

**.routerCore*.ppp[*].queueType           = "inet.examples.netperfmeter.REDQueue"
**.routerCore*.ppp[*].queue.red.wq        = 1.0
**.routerCore*.ppp[*].queue.red.minths     = "35"
**.routerCore*.ppp[*].queue.red.maxths     = "36"
**.routerCore*.ppp[*].queue.red.maxps      = "1.0"
**.routerCore*.ppp[*].queue.red.pkrates    = "1.0"
**.routerCore*.ppp[*].queue.red.marks = "1"
**.routerCore*.ppp[*].queueframeCapacity = 500


[Config DCTCP-BitDown10]
network = DCTCPBitDown10
seed-set=${2}
**.e*.datarate = 10Gbps
**.e*.delay = 50us

**.tcp.sackSupport = false
**.tcp.tcpAlgorithmClass = "LGTCP"

**.client*.tcp.ldatarate = 10Gbps


**.client*.numTcpApps = 1 
**.client1*.tcpApp[0].typename = "TCPSessionApp"
**.client2*.tcpApp[0].typename = "TCPSinkApp"
**.client2*.tcpApp[0].localPort = 1000

**.client1*.tcpApp[0].active = true
**.client1*.tcpApp[0].localPort = -1
**.client1*.tcpApp[0].sendBytes = 100MiB
**.client1*.tcpApp[0].sendScript = ""
**.client1*.tcpApp[0].tClose = 0s
**.client1*.tcpApp[0].connectPort = 1000
**.client1*.tcpApp[0].tOpen = 1s
**.client1*.tcpApp[0].tSend = 3.0s

**.client11.tcpApp[0].connectAddress = "client21"
**.client12.tcpApp[0].connectAddress = "client22"
**.client13.tcpApp[0].connectAddress = "client23"
**.client14.tcpApp[0].connectAddress = "client24"
**.client15.tcpApp[0].connectAddress = "client25"
**.client16.tcpApp[0].connectAddress = "client26"
**.client17.tcpApp[0].connectAddress = "client27"
**.client18.tcpApp[0].connectAddress = "client28"
**.client19.tcpApp[0].connectAddress = "client29"
**.client110.tcpApp[0].connectAddress = "client210"

**.routerCore*.ppp[*].queueType           = "inet.examples.netperfmeter.REDQueue"
**.routerCore*.ppp[*].queue.red.wq        = 1.0
**.routerCore*.ppp[*].queue.red.minths     = "0"
**.routerCore*.ppp[*].queue.red.maxths     = "3"
**.routerCore*.ppp[*].queue.red.maxps      = "1.0"
**.routerCore*.ppp[*].queue.red.pkrates    = "1.0"
**.routerCore*.ppp[*].queue.red.marks = "1"
**.routerCore*.ppp[*].queueframeCapacity = 500


[Config DCTCP-BitDown10-VR]
network = DCTCPBitDown10
seed-set=${2}
**.e*.datarate = 10Gbps
**.e*.delay = 50us

**.tcp.sackSupport = false
**.tcp.tcpAlgorithmClass = "LGTCP"

**.client*.tcp.ldatarate = 10Gbps


**.client*.numTcpApps = 1 
**.client1*.tcpApp[0].typename = "TCPSessionApp"
**.client2*.tcpApp[0].typename = "TCPSinkApp"
**.client2*.tcpApp[0].localPort = 1000

**.client1*.tcpApp[0].active = true
**.client1*.tcpApp[0].localPort = -1
**.client1*.tcpApp[0].sendBytes = 100MiB
**.client1*.tcpApp[0].sendScript = ""
**.client1*.tcpApp[0].tClose = 0s
**.client1*.tcpApp[0].connectPort = 1000
**.client1*.tcpApp[0].tOpen = 1s
**.client1*.tcpApp[0].tSend = 3.0s

**.client11.tcpApp[0].connectAddress = "client21"
**.client12.tcpApp[0].connectAddress = "client22"
**.client13.tcpApp[0].connectAddress = "client23"
**.client14.tcpApp[0].connectAddress = "client24"
**.client15.tcpApp[0].connectAddress = "client25"
**.client16.tcpApp[0].connectAddress = "client26"
**.client17.tcpApp[0].connectAddress = "client27"
**.client18.tcpApp[0].connectAddress = "client28"
**.client19.tcpApp[0].connectAddress = "client29"
**.client110.tcpApp[0].connectAddress = "client210"

**.routerCore*.ppp[*].queueType           = "inet.examples.netperfmeter.REDQueue"
**.routerCore*.ppp[*].queue.red.wq        = 1.0
**.routerCore*.ppp[*].queue.red.minths     = "0"
**.routerCore*.ppp[*].queue.red.maxths     = "3"
**.routerCore*.ppp[*].queue.red.maxps      = "1.0"
**.routerCore*.ppp[*].queue.red.pkrates    = "1.0"
**.routerCore*.ppp[*].queue.red.marks = "1"
**.routerCore*.ppp[*].queueframeCapacity = 500


[Config DCTCP-Incast-2LGAsymm]
seed-set=${2}
**.e1.datarate = 10Gbps
**.e2.datarate = 10Gbps

**.e3.datarate = 6Gbps
**.e4.datarate = 4Gbps
**.e5.datarate = 2Gbps
**.e21.datarate = 5Gbps
**.e*.datarate = 10Gbps
**.e*.delay = 50us

**.tcp.sackSupport = false
**.tcp.tcpAlgorithmClass = "LGTCP"

**.client11.tcpApp[0].tSend = 3s
**.client11.tcp.ldatarate = 10Gbps
**.client12.tcpApp[0].tSend = 3s
**.client12.tcp.ldatarate = 10Gbps

**.client13.tcpApp[0].tSend = 62s
**.client13.tcp.ldatarate = 6Gbps
**.client14.tcpApp[0].tSend = 62s
**.client14.tcp.ldatarate = 4Gbps
**.client15.tcpApp[0].tSend = 62s
**.client15.tcp.ldatarate = 2Gbps

**.client*.tcp.ldatarate = 10Gbps

**.client16.tcpApp[0].tSend = 62s
**.client17.tcpApp[0].tSend = 62s
**.client18.tcpApp[0].tSend = 62s
**.client19.tcpApp[0].tSend = 62s
**.client110.tcpApp[0].tSend = 62s
**.client111.tcpApp[0].tSend = 62s
**.client112.tcpApp[0].tSend = 62s
**.client113.tcpApp[0].tSend = 62s
**.client114.tcpApp[0].tSend = 62s
**.client115.tcpApp[0].tSend = 62s
**.client116.tcpApp[0].tSend = 62s
**.client117.tcpApp[0].tSend = 62s
**.client118.tcpApp[0].tSend = 62s
**.client119.tcpApp[0].tSend = 62s
**.client120.tcpApp[0].tSend = 62s

#**.routerCore.ppp[20].queue.red.maxths     = "1"

**.routerCore.ppp[20].queueType           = "inet.examples.netperfmeter.REDQueue"
**.routerCore.ppp[20].queue.red.wq        = 1.0
**.routerCore.ppp[20].queue.red.minths     = "0"
**.routerCore.ppp[20].queue.red.maxths     = "1"
**.routerCore.ppp[20].queue.red.maxps      = "1.0"
**.routerCore.ppp[20].queue.red.pkrates    = "1.0"
**.routerCore.ppp[20].queue.red.marks = "1"
**.routerCore.ppp[20].queueframeCapacity = 500


[Config DCTCP-Incast-2DCTCPAsymm]
seed-set=${2}
**.e1.datarate = 10Gbps
**.e2.datarate = 10Gbps

**.e3.datarate = 6Gbps