[General]


parallel-simulation = false
warnings = true
sim-time-limit = 62.0s

cmdenv-module-messages = true # for normal (non-express) mode only
cmdenv-event-banners = true   # for normal (non-express) mode only

tkenv-plugin-path = ../../../etc/plugins

#
# Network specific settings
#

# set inet_addr, Mask, MTU ( = 1500), default route (=router)
#**.client.routingFile = "client.mrt"
#**.router.routingFile = "router.mrt"
#**.server.routingFile = "server.mrt"

# ip settings
**.ip.procDelay = 0s
**.IPForward = false

# hookType settings
**.ppp[*].numOutputHooks = 1
**.ppp[*].outputHook[0].typename = "OrdinalBasedDropper" # Nop | ThruputMeter | OrdinalBasedDropper | OrdinalBasedDuplicator

# ARP settings
**.arp.retryTimeout = 1s
**.arp.retryCount = 3
**.arp.cacheTimeout = 100s

# NIC settings
**.ppp[*].queueType = "DropTailQueue"
**.ppp[*].queue.frameCapacity = 200    # packets

**.tcp.delayedAcksEnabled = false                    # delayed ACK algorithm (RFC 1122) enabled/disabled
**.tcp.nagleEnabled = true                           # Nagle's algorithm (RFC 896) enabled/disabled
**.tcp.limitedTransmitEnabled = false                # Limited Transmit algorithm (RFC 3042) enabled/disabled (can be used for TCPReno/TCPTahoe/TCPNewReno/TCPNoCongestionControl)
**.tcp.increasedIWEnabled = false                    # Increased Initial Window (RFC 3390) enabled/disabled
**.tcp.sackSupport = true                            # Selective Acknowledgment (RFC 2018, 2883, 3517) support (header option) (SACK will be enabled for a connection if both endpoints support it)
**.tcp.windowScalingSupport = true                  # Window Scale (RFC 1323) support (header option) (WS will be enabled for a connection if both endpoints support it)
**.tcp.timestampSupport = false                      # Timestamps (RFC 1323) support (header option) (TS will be enabled for a connection if both endpoints support it)
**.tcp.tcpAlgorithmClass = "TCPReno"                 # TCPReno/TCPTahoe/TCPNewReno/TCPNoCongestionControl/DumbTCP
**.tcp.advertisedWindow = 9553500
**.tcp.recordStats = true
**.tcp.mss = 1460

**.tcp2.delayedAcksEnabled = false                    # delayed ACK algorithm (RFC 1122) enabled/disabled
**.tcp2.nagleEnabled = true                           # Nagle's algorithm (RFC 896) enabled/disabled
**.tcp2.limitedTransmitEnabled = false                # Limited Transmit algorithm (RFC 3042) enabled/disabled (can be used for TCPReno/TCPTahoe/TCPNewReno/TCPNoCongestionControl)
**.tcp2.increasedIWEnabled = false                    # Increased Initial Window (RFC 3390) enabled/disabled
**.tcp2.sackSupport = true                            # Selective Acknowledgment (RFC 2018, 2883, 3517) support (header option) (SACK will be enabled for a connection if both endpoints support it)
**.tcp2.windowScalingSupport = true                  # Window Scale (RFC 1323) support (header option) (WS will be enabled for a connection if both endpoints support it)
**.tcp2.timestampSupport = false                      # Timestamps (RFC 1323) support (header option) (TS will be enabled for a connection if both endpoints support it)
**.tcp2.tcpAlgorithmClass = "TCPReno"                 # TCPReno/TCPTahoe/TCPNewReno/TCPNoCongestionControl/DumbTCP
**.tcp2.advertisedWindow = 9553500
**.tcp2.recordStats = true
**.tcp2.mss = 1460

############################################################## EndToEnd-TCP
[Config EndToEnd-TCP]
network = dumbbellAgg

#dumbbellAgg.ldelay = ${36.5ms}

**.client2*.numTcpApps = 1
**.client2*.tcpApp[0].typename = "TCPSinkApp"
**.client2*.tcpApp[0].localPort = 1000

**.client1*.numTcpApps = 1
**.client1*.tcpApp[0].typename = "TCPSessionApp"
**.client1*.tcpApp[0].active = true
**.client1*.tcpApp[0].localPort = -1
**.client11.tcpApp[0].connectAddress = "client21"
**.client12.tcpApp[0].connectAddress = "client22"
**.client13.tcpApp[0].connectAddress = "client23"
**.client14.tcpApp[0].connectAddress = "client24"
**.client15.tcpApp[0].connectAddress = "client25"
**.client1*.tcpApp[0].connectPort = 1000
**.client1*.tcpApp[0].tOpen = 1s
**.client1*.tcpApp[0].tSend = 2s
**.client1*.tcpApp[0].sendBytes = 100MiB
**.client1*.tcpApp[0].sendScript = ""
**.client1*.tcpApp[0].tClose = 0s

#**.routerEg.numTcpApps = 1
#**.routerEg.tcpApp[0].typename = "TCPSinkApp"
#**.routerEg.tcpApp[0].localPort = 1002
#
#**.routerIng.numTcpApps = 8
#**.routerIng.tcpApp[*].typename = "TCPSessionApp"
#**.routerIng.tcpApp[*].active = true
#**.routerIng.tcpApp[*].localPort = -1
#**.routerIng.tcpApp[*].connectAddress = "routerEg"
#**.routerIng.tcpApp[*].connectPort = 1002
#**.routerIng.tcpApp[*].tOpen = 1s
#**.routerIng.tcpApp[*].tSend = 2s
#**.routerIng.tcpApp[*].sendBytes = 2MiB
#**.routerIng.tcpApp[*].sendScript = ""
#**.routerIng.tcpApp[*].tClose = 0s
#**.routerIng.ppp[*].queueType = "DropTailQueue" # in routers
#**.routerIng.ppp[*].queue.frameCapacity = 100#6, ,,, 175

#**.routerIng.ppp[5].ppp.tLow = 10s
#**.routerIng.ppp[5].ppp.tNormal = 15s
#**.routerIng.ppp[5].ppp.lowDatarate = 1Mbps
**.routerIng.ppp[5].ppp.rateConfig = xml("<rate><interval start=\"10\" end=\"15\" speed=\"1000000\" /></rate>")

**.ppp[*].queueType = "DropTailQueue" # in routers
**.ppp[*].queue.frameCapacity = 100#6, ,,, 175

**.tcp.windowScalingSupport = true
**.tcp.advertisedWindow = 65535000
**.tcp2.windowScalingSupport = true
**.tcp2.advertisedWindow = 65535000
**.tcp.sackSupport = false                            # Selective Acknowledgment (RFC 2018, 2883, 3517) support (header option) (SACK will be enabled for a connection if both endpoints support it)
**.tcp2.sackSupport = false                            # Selective Acknowledgment (RFC 2018, 2883, 3517) support (header option) (SACK will be enabled for a connection if both endpoints support it)



############################################################## EndToEnd-TCP
[Config EndToEnd-TCP-1]
network = dumbbellAgg
sim-time-limit = 32.0s
dumbbellAgg.ldatarate = 100Mbps 
dumbbellAgg.mdatarate = 50Mbps 

#dumbbellAgg.ldelay = ${36.5ms}

**.client21.numTcpApps = 1
**.client21.tcpApp[0].typename = "TCPSinkApp"
**.client21.tcpApp[0].localPort = 1000

**.client11.numTcpApps = 1
**.client11.tcpApp[0].typename = "TCPSessionApp"
**.client11.tcpApp[0].active = true
**.client11.tcpApp[0].localPort = -1
**.client11.tcpApp[0].connectPort = 1000
**.client11.tcpApp[0].connectAddress = "client21"
**.client11.tcpApp[0].tOpen = 1s
**.client11.tcpApp[0].tSend = 2s
**.client11.tcpApp[0].sendBytes = 1000MiB
**.client11.tcpApp[0].sendScript = ""
**.client11.tcpApp[0].tClose = 0s

#**.routerEg.numTcpApps = 1
#**.routerEg.tcpApp[0].typename = "TCPSinkApp"
#**.routerEg.tcpApp[0].localPort = 1002
#
#**.routerIng.numTcpApps = 8
#**.routerIng.tcpApp[*].typename = "TCPSessionApp"
#**.routerIng.tcpApp[*].active = true
#**.routerIng.tcpApp[*].localPort = -1
#**.routerIng.tcpApp[*].connectAddress = "routerEg"
#**.routerIng.tcpApp[*].connectPort = 1002
#**.routerIng.tcpApp[*].tOpen = 1s
#**.routerIng.tcpApp[*].tSend = 2s
#**.routerIng.tcpApp[*].sendBytes = 2MiB
#**.routerIng.tcpApp[*].sendScript = ""
#**.routerIng.tcpApp[*].tClose = 0s
#**.routerIng.ppp[*].queueType = "DropTailQueue" # in routers
#**.routerIng.ppp[*].queue.frameCapacity = 100#6, ,,, 175

#**.routerIng.ppp[5].ppp.tLow = 10s
#**.routerIng.ppp[5].ppp.tNormal = 15s
#**.routerIng.ppp[5].ppp.lowDatarate = 10Mbps
**.routerIng.ppp[5].ppp.rateConfig = xml("<rate><interval start=\"10\" end=\"15\" speed=\"10000000\" /></rate>")

**.ppp[*].queueType = "DropTailQueue" # in routers
**.ppp[*].queue.frameCapacity = 250#6, ,,, 175

**.tcp.windowScalingSupport = true
**.tcp.advertisedWindow = 655350000
**.tcp2.windowScalingSupport = true
**.tcp2.advertisedWindow = 655350000
**.tcp.sackSupport = true                            # Selective Acknowledgment (RFC 2018, 2883, 3517) support (header option) (SACK will be enabled for a connection if both endpoints support it)
**.tcp2.sackSupport = true                            # Selective Acknowledgment (RFC 2018, 2883, 3517) support (header option) (SACK will be enabled for a connection if both endpoints support it)


############################################################## EndToEnd-DCTCP
[Config EndToEnd-DCTCP-1]
network = chain
sim-time-limit = 5.0s
chain.ldelay = 0.001s 
chain.ldatarate = 600Mbps#1Gbps 
chain.mdatarate = 500Mbps#1Gbps 

#dumbbellAgg.ldelay = ${36.5ms}

**.client21.numTcpApps = 1
**.client21.tcpApp[0].typename = "TCPSinkApp"
**.client21.tcpApp[0].localPort = 1000

**.client11.numTcpApps = 1
**.client11.tcpApp[0].typename = "TCPSessionApp"
**.client11.tcpApp[0].active = true
**.client11.tcpApp[0].localPort = -1
**.client11.tcpApp[0].connectPort = 1000
**.client11.tcpApp[0].connectAddress = "client21"
**.client11.tcpApp[0].tOpen = 0s
**.client11.tcpApp[0].tSend = 0s
**.client11.tcpApp[0].sendBytes = 1000MiB
**.client11.tcpApp[0].sendScript = ""
**.client11.tcpApp[0].tClose = 0s

#**.routerEg.numTcpApps = 1
#**.routerEg.tcpApp[0].typename = "TCPSinkApp"
#**.routerEg.tcpApp[0].localPort = 1002
#
#**.routerIng.numTcpApps = 8
#**.routerIng.tcpApp[*].typename = "TCPSessionApp"
#**.routerIng.tcpApp[*].active = true
#**.routerIng.tcpApp[*].localPort = -1
#**.routerIng.tcpApp[*].connectAddress = "routerEg"
#**.routerIng.tcpApp[*].connectPort = 1002
#**.routerIng.tcpApp[*].tOpen = 1s
#**.routerIng.tcpApp[*].tSend = 2s
#**.routerIng.tcpApp[*].sendBytes = 2MiB
#**.routerIng.tcpApp[*].sendScript = ""
#**.routerIng.tcpApp[*].tClose = 0s
#**.routerIng.ppp[*].queueType = "DropTailQueue" # in routers
#**.routerIng.ppp[*].queue.frameCapacity = 100#6, ,,, 175

#**.routerEg.ppp[1].ppp.tLow = 2s
#**.routerEg.ppp[1].ppp.tNormal = 3s
#**.routerEg.ppp[1].ppp.lowDatarate = 150Mbps
**.routerEg.ppp[1].ppp.rateConfig = xml("<rate><interval start=\"2\" end=\"3\" speed=\"150000000\" /></rate>")

**.routerEg.ppp[*].queueType           = "inet.examples.netperfmeter.REDQueue"
**.routerEg.ppp[*].queue.red.wq        = 1.0
**.routerEg.ppp[*].queue.red.minths     = "35"
**.routerEg.ppp[*].queue.red.maxths     = "36"
**.routerEg.ppp[*].queue.red.maxps      = "1.0"
**.routerEg.ppp[*].queue.red.pkrates    = "1.0"
**.routerEg.ppp[*].queue.red.marks = "1"
**.routerEg.ppp[*].queueframeCapacity = 500

**.ppp[*].queueType = "DropTailQueue" # in routers
**.ppp[*].queue.frameCapacity = 1000#6, ,,, 175


**.tcp.tcpAlgorithmClass = "DCTCP"                 # TCPReno/TCPTahoe/TCPNewReno/TCPNoCongestionControl/DumbTCP
**.tcp2.tcpAlgorithmClass = "DCTCP"                 # TCPReno/TCPTahoe/TCPNewReno/TCPNoCongestionControl/DumbTCP
**.tcp.windowScalingSupport = true
**.tcp.advertisedWindow = 655350000
**.tcp2.windowScalingSupport = true
**.tcp2.advertisedWindow = 655350000
**.tcp.sackSupport = false                            # Selective Acknowledgment (RFC 2018, 2883, 3517) support (header option) (SACK will be enabled for a connection if both endpoints support it)
**.tcp2.sackSupport = false                            # Selective Acknowledgment (RFC 2018, 2883, 3517) support (header option) (SACK will be enabled for a connection if both endpoints support it)



############################################################## EndToEnd-DCTCP
[Config EndToEnd-DCTCP]
network = dumbbellAgg
sim-time-limit = 40.0s
dumbbellAgg.ldatarate = 100Mbps 
dumbbellAgg.mdatarate = 50Mbps 

#dumbbellAgg.ldelay = ${36.5ms}

**.client2*.numTcpApps = 1
**.client2*.tcpApp[0].typename = "TCPSinkApp"
**.client2*.tcpApp[0].localPort = 1000

**.client1*.numTcpApps = 1
**.client1*.tcpApp[0].typename = "TCPSessionApp"
**.client1*.tcpApp[0].active = true
**.client1*.tcpApp[0].localPort = -1
**.client1*.tcpApp[0].connectPort = 1000
**.client11.tcpApp[0].connectAddress = "client21"
**.client12.tcpApp[0].connectAddress = "client22"
**.client13.tcpApp[0].connectAddress = "client23"
**.client14.tcpApp[0].connectAddress = "client24"
**.client15.tcpApp[0].connectAddress = "client25"
**.client1*.tcpApp[0].tOpen = 0s
**.client1*.tcpApp[0].tSend = 0s
**.client1*.tcpApp[0].sendBytes = 1000MiB
**.client1*.tcpApp[0].sendScript = ""
**.client1*.tcpApp[0].tClose = 0s

#**.routerEg.numTcpApps = 1
#**.routerEg.tcpApp[0].typename = "TCPSinkApp"
#**.routerEg.tcpApp[0].localPort = 1002
#
#**.routerIng.numTcpApps = 8
#**.routerIng.tcpApp[*].typename = "TCPSessionApp"
#**.routerIng.tcpApp[*].active = true
#**.routerIng.tcpApp[*].localPort = -1
#**.routerIng.tcpApp[*].connectAddress = "routerEg"
#**.routerIng.tcpApp[*].connectPort = 1002
#**.routerIng.tcpApp[*].tOpen = 1s
#**.routerIng.tcpApp[*].tSend = 2s
#**.routerIng.tcpApp[*].sendBytes = 2MiB
#**.routerIng.tcpApp[*].sendScript = ""
#**.routerIng.tcpApp[*].tClose = 0s
#**.routerIng.ppp[*].queueType = "DropTailQueue" # in routers
#**.routerIng.ppp[*].queue.frameCapacity = 100#6, ,,, 175

#**.routerIng.ppp[5].ppp.tLow = 15s
#**.routerIng.ppp[5].ppp.tNormal = 20s
#**.routerIng.ppp[5].ppp.lowDatarate = 10Mbps
**.routerIng.ppp[5].ppp.rateConfig = xml("<rate><interval start=\"15\" end=\"20\" speed=\"10000000\" /></rate>")

**.ppp[*].queueType           = "inet.examples.netperfmeter.REDQueue"
**.ppp[*].queue.red.wq        = 1.0
**.ppp[*].queue.red.minths     = "35"
**.ppp[*].queue.red.maxths     = "36"
**.ppp[*].queue.red.maxps      = "1.0"
**.ppp[*].queue.red.pkrates    = "1.0"
**.ppp[*].queue.red.marks = "1"
**.ppp[*].queueframeCapacity = 500



**.tcp.tcpAlgorithmClass = "DCTCP"                 # TCPReno/TCPTahoe/TCPNewReno/TCPNoCongestionControl/DumbTCP
**.tcp2.tcpAlgorithmClass = "DCTCP"                 # TCPReno/TCPTahoe/TCPNewReno/TCPNoCongestionControl/DumbTCP
**.tcp.windowScalingSupport = true
**.tcp.advertisedWindow = 655350000
**.tcp2.windowScalingSupport = true
**.tcp2.advertisedWindow = 655350000
**.tcp.sackSupport = false                            # Selective Acknowledgment (RFC 2018, 2883, 3517) support (header option) (SACK will be enabled for a connection if both endpoints support it)
**.tcp2.sackSupport = false                            # Selective Acknowledgment (RFC 2018, 2883, 3517) support (header option) (SACK will be enabled for a connection if both endpoints support it)




############################################################## EndToEnd-LGC
[Config EndToEnd-LGC]
network = dumbbellAgg
sim-time-limit = 42.0s

dumbbellAgg.ldatarate = 100Mbps 
dumbbellAgg.mdatarate = 50Mbps 


**.client2*.numTcpApps = 1
**.client2*.tcpApp[0].typename = "TCPSinkApp"
**.client2*.tcpApp[0].localPort = 1000

**.client1*.numTcpApps = 1
**.client1*.tcpApp[0].typename = "TCPSessionApp"
**.client1*.tcpApp[0].active = true
**.client1*.tcpApp[0].localPort = -1
**.client11.tcpApp[0].connectAddress = "client21"
**.client12.tcpApp[0].connectAddress = "client22"
**.client13.tcpApp[0].connectAddress = "client23"
**.client14.tcpApp[0].connectAddress = "client24"
**.client15.tcpApp[0].connectAddress = "client25"
**.client1*.tcpApp[0].connectPort = 1000
**.client1*.tcpApp[0].tOpen = 1s
**.client1*.tcpApp[0].tSend = 2s
**.client1*.tcpApp[0].sendBytes = 100MiB
**.client1*.tcpApp[0].sendScript = ""
**.client1*.tcpApp[0].tClose = 0s

#**.client11.ppp[0].ppp.tLow = 10s
#**.client11.ppp[0].ppp.tNormal = 15s
#**.client11.ppp[0].ppp.lowDatarate = 1Mbps

**.routerIng.ppp[*].queueType           = "inet.examples.netperfmeter.REDQueue"
**.routerIng.ppp[*].queue.red.wq        = 1
**.routerIng.ppp[*].queue.red.minths     = "1"
**.routerIng.ppp[*].queue.red.maxths     = "2"
**.routerIng.ppp[*].queue.red.maxps      = "1.0"
**.routerIng.ppp[*].queue.red.pkrates    = "1666.0"
**.routerIng.ppp[*].queue.red.marks = "1"

**.numPcapRecorders = 1
**.ppp[*].queueType = "DropTailQueue"
**.ppp[*].queue.frameCapacity = 1666    # packets

**.tcp.lgccPhi1 = 10
**.tcp.lgccPhi2 = 2
**.tcp2.lgccPhi1 = 10
**.tcp2.lgccPhi2 = 2

**.tcp.tcpAlgorithmClass = "LGCC"                 # TCPReno/TCPTahoe/TCPNewReno/TCPNoCongestionControl/DumbTCP
**.tcp.sackSupport = false       
**.tcp.ldatarate = 50Mbps
**.tcp.lpacing = true
**.tcp2.tcpAlgorithmClass = "LGCC"                 # TCPReno/TCPTahoe/TCPNewReno/TCPNoCongestionControl/DumbTCP
**.tcp2.sackSupport = false                            # Selective Acknowledgment (RFC 2018, 2883, 3517) support (header option) (SACK will be enabled for a connection if both endpoints support it)
**.tcp2.ldatarate = 50Mbps
**.tcp2.lpacing = true
**.tcp.windowScalingSupport = true
**.tcp.advertisedWindow = 65535000
**.tcp2.windowScalingSupport = true
**.tcp2.advertisedWindow = 65535000


############################################################## EndToEnd-LGC
[Config EndToEnd-LGC-1]
network = chain
sim-time-limit = 5.0s
chain.ldelay = 0.001s 
chain.ldatarate = 505Mbps#1Gbps 
chain.mdatarate = 500Mbps#1Gbps 

**.client2*.numTcpApps = 1
**.client2*.tcpApp[0].typename = "TCPSinkApp"
**.client2*.tcpApp[0].localPort = 1000

**.client11.numTcpApps = 1
**.client11.tcpApp[0].typename = "TCPSessionApp"
**.client11.tcpApp[0].active = true
**.client11.tcpApp[0].localPort = -1
**.client11.tcpApp[0].connectAddress = "client21"
**.client11.tcpApp[0].connectPort = 1000
**.client11.tcpApp[0].tOpen = 0s
**.client11.tcpApp[0].tSend = 0s
**.client11.tcpApp[0].sendBytes = 1000MiB
**.client11.tcpApp[0].sendScript = ""
**.client11.tcpApp[0].tClose = 0s


#**.client11.ppp[0].ppp.tLow = 10s
#**.client11.ppp[0].ppp.tNormal = 15s
#**.client11.ppp[0].ppp.lowDatarate = 1Mbps

#**.routerEg.ppp[1].ppp.tLow = 2s
#**.routerEg.ppp[1].ppp.tNormal = 3s
#**.routerEg.ppp[1].ppp.lowDatarate = 150Mbps
**.routerEg.ppp[1].ppp.rateConfig = xml("<rate><interval start=\"2\" end=\"3\" speed=\"150000000\" /></rate>")


**.routerEg.ppp[*].queueType           = "inet.examples.netperfmeter.REDQueue"
**.routerEg.ppp[*].queue.red.wq        = 1.0
**.routerEg.ppp[*].queue.red.minths     = "1"
**.routerEg.ppp[*].queue.red.maxths     = "60"
**.routerEg.ppp[*].queue.red.maxps      = "1.0"
**.routerEg.ppp[*].queue.red.pkrates    = "1.0"
**.routerEg.ppp[*].queue.red.marks = "1"
**.routerEg.ppp[*].queueframeCapacity = 500

**.ppp[*].queueType = "DropTailQueue" # in routers
**.ppp[*].queue.frameCapacity = 1000#6, ,,, 175

**.tcp.lgccPhi1 = 10
**.tcp.lgccPhi2 = 10
**.tcp.lgccAdaptiveR = false
**.tcp2.lgccPhi1 = 10
**.tcp2.lgccPhi2 = 10
**.tcp2.lgccAdaptiveR = false

**.tcp.tcpAlgorithmClass = "LGCC"                 # TCPReno/TCPTahoe/TCPNewReno/TCPNoCongestionControl/DumbTCP
**.tcp.sackSupport = false       
**.tcp.ldatarate = 500Mbps
**.tcp.lpacing = false
**.tcp2.tcpAlgorithmClass = "LGCC"                 # TCPReno/TCPTahoe/TCPNewReno/TCPNoCongestionControl/DumbTCP
**.tcp2.sackSupport = false                            # Selective Acknowledgment (RFC 2018, 2883, 3517) support (header option) (SACK will be enabled for a connection if both endpoints support it)
**.tcp2.ldatarate = 500Mbps
**.tcp2.lpacing = false
**.tcp.windowScalingSupport = true
**.tcp.advertisedWindow = 65535000
**.tcp2.windowScalingSupport = true
**.tcp2.advertisedWindow = 65535000


############################################################## ABC
[Config ABC]
network = chain
sim-time-limit = 5.0s
chain.ldelay = 0.001s 
chain.ldatarate = 520Mbps#1Gbps 
chain.mdatarate = 500Mbps#1Gbps 

**.client2*.numTcpApps = 1
**.client2*.tcpApp[0].typename = "TCPSinkApp"
**.client2*.tcpApp[0].localPort = 1000

**.client11.numTcpApps = 1
**.client11.tcpApp[0].typename = "TCPSessionApp"
**.client11.tcpApp[0].active = true
**.client11.tcpApp[0].localPort = -1
**.client11.tcpApp[0].connectAddress = "client21"
**.client11.tcpApp[0].connectPort = 1000
**.client11.tcpApp[0].tOpen = 0s
**.client11.tcpApp[0].tSend = 0s
**.client11.tcpApp[0].sendBytes = 1000MiB
**.client11.tcpApp[0].sendScript = ""
**.client11.tcpApp[0].tClose = 0s


#**.client11.ppp[0].ppp.tLow = 10s
#**.client11.ppp[0].ppp.tNormal = 15s
#**.client11.ppp[0].ppp.lowDatarate = 1Mbps

#**.routerEg.ppp[1].ppp.tLow = 2s
#**.routerEg.ppp[1].ppp.tNormal = 3s
#**.routerEg.ppp[1].ppp.lowDatarate = 150Mbps
**.routerEg.ppp[1].ppp.rateConfig = xml("<rate><interval start=\"2\" end=\"3\" speed=\"150000000\" /></rate>")

**.routerEg.ppp[*].queueType           = "ABCQueue"
**.routerEg.ppp[*].queue.interval      = 0.001
**.routerEg.ppp[*].queue.delayThreshlod = 0.0001
**.routerEg.ppp[*].queue.delta         = 0.03
**.routerEg.ppp[*].queue.no     = 1
**.routerEg.ppp[*].queue.frameCapacity = 1000

#**.ppp[*].queueType           = "ABCQueue"
#**.ppp[*].queue.interval      = 0.001
#**.ppp[*].queue.delayThreshlod = 0.0001
#**.ppp[*].queue.delta         = 0.06
#**.ppp[*].queue.frameCapacity = 1000
#
**.ppp[*].queueType = "DropTailQueue" # in routers
**.ppp[*].queue.frameCapacity = 1000#6, ,,, 175

**.tcp.tcpAlgorithmClass = "ABC"                 # TCPReno/TCPTahoe/TCPNewReno/TCPNoCongestionControl/DumbTCP
**.tcp.sackSupport = false       
**.tcp.ldatarate = 500Mbps
**.tcp.lpacing = false
**.tcp2.tcpAlgorithmClass = "ABC"                 # TCPReno/TCPTahoe/TCPNewReno/TCPNoCongestionControl/DumbTCP
**.tcp2.sackSupport = false                            # Selective Acknowledgment (RFC 2018, 2883, 3517) support (header option) (SACK will be enabled for a connection if both endpoints support it)
**.tcp2.ldatarate = 500Mbps
**.tcp2.lpacing = false
**.tcp.windowScalingSupport = true
**.tcp.advertisedWindow = 65535000
**.tcp2.windowScalingSupport = true
**.tcp2.advertisedWindow = 65535000


############################################################## ABC
[Config ABC1-Cellular]
network = chain
sim-time-limit = 929s #120.0s, 787s, 475s, 140s, 929s, 140s
chain.ldelay = 0.017s 
chain.ldatarate = 60Mbps#1Gbps 
chain.mdatarate = 50Mbps#1Gbps 

**.client2*.numTcpApps = 1
**.client2*.tcpApp[0].typename = "TCPSinkApp"
**.client2*.tcpApp[0].localPort = 1000

**.client11.numTcpApps = 1
**.client11.tcpApp[0].typename = "TCPSessionApp"
**.client11.tcpApp[0].active = true
**.client11.tcpApp[0].localPort = -1
**.client11.tcpApp[0].connectAddress = "client21"
**.client11.tcpApp[0].connectPort = 1000
**.client11.tcpApp[0].tOpen = 0s
**.client11.tcpApp[0].tSend = 0s
**.client11.tcpApp[0].sendBytes = 1000MiB
**.client11.tcpApp[0].sendScript = ""
**.client11.tcpApp[0].tClose = 0s


#**.client11.ppp[0].ppp.tLow = 10s
#**.client11.ppp[0].ppp.tNormal = 15s
#**.client11.ppp[0].ppp.lowDatarate = 1Mbps

#**.routerEg.ppp[1].ppp.tLow = 2s
#**.routerEg.ppp[1].ppp.tNormal = 3s
#**.routerEg.ppp[1].ppp.lowDatarate = 150Mbps
**.routerEg.ppp[1].ppp.rateConfig = ${xmldoc("ATT-LTE-driving-2016.xml"),xmldoc("ATT-LTE-driving.xml"),xmldoc("TMobile-LTE-driving.xml"),xmldoc("TMobile-LTE-short.xml"),xmldoc("TMobile-UMTS-driving.xml"),xmldoc("Verizon-LTE-short.xml")}

**.routerEg.ppp[*].queueType           = "ABCQueue"
**.routerEg.ppp[*].queue.interval      = 0.017
**.routerEg.ppp[*].queue.delayThreshlod = 0.01
**.routerEg.ppp[*].queue.delta         = 0.3
**.routerEg.ppp[*].queue.no     = 1
**.routerEg.ppp[*].queue.frameCapacity = 10000

#**.ppp[*].queueType           = "ABCQueue"
#**.ppp[*].queue.interval      = 0.001
#**.ppp[*].queue.delayThreshlod = 0.0001
#**.ppp[*].queue.delta         = 0.06
#**.ppp[*].queue.frameCapacity = 1000
#
**.ppp[*].queueType = "DropTailQueue" # in routers
**.ppp[*].queue.frameCapacity = 10000#6, ,,, 175

**.tcp.tcpAlgorithmClass = "ABC"                 # TCPReno/TCPTahoe/TCPNewReno/TCPNoCongestionControl/DumbTCP
**.tcp.sackSupport = false       
**.tcp.ldatarate = 500Mbps
**.tcp.lpacing = false
**.tcp2.tcpAlgorithmClass = "ABC"                 # TCPReno/TCPTahoe/TCPNewReno/TCPNoCongestionControl/DumbTCP
**.tcp2.sackSupport = false                            # Selective Acknowledgment (RFC 2018, 2883, 3517) support (header option) (SACK will be enabled for a connection if both endpoints support it)
**.tcp2.ldatarate = 500Mbps
**.tcp2.lpacing = false
**.tcp.windowScalingSupport = true
**.tcp.advertisedWindow = 65535000
**.tcp2.windowScalingSupport = true
**.tcp2.advertisedWindow = 65535000


############################################################## ABC
[Config ABC1-5g]
network = chainLong
sim-time-limit = 100s #120.0s, 787s, 475s, 140s, 929s, 140s
chainLong.ldelay = 0.005s 
chainLong.ldatarate = 500Mbps#1Gbps 
chainLong.mdatarate = 500Mbps#1Gbps 

**.client2*.numTcpApps = 1
**.client2*.tcpApp[0].typename = "TCPSinkApp"
**.client2*.tcpApp[0].localPort = 1000

**.client11.numTcpApps = 1
**.client11.tcpApp[0].typename = "TCPSessionApp"
**.client11.tcpApp[0].active = true
**.client11.tcpApp[0].localPort = -1
**.client11.tcpApp[0].connectAddress = "client21"
**.client11.tcpApp[0].connectPort = 1000
**.client11.tcpApp[0].tOpen = 0s
**.client11.tcpApp[0].tSend = 0s
**.client11.tcpApp[0].sendBytes = 10000MiB
**.client11.tcpApp[0].sendScript = ""
**.client11.tcpApp[0].tClose = 0s


#**.client11.ppp[0].ppp.tLow = 10s
#**.client11.ppp[0].ppp.tNormal = 15s
#**.client11.ppp[0].ppp.lowDatarate = 1Mbps

#**.routerEg.ppp[1].ppp.tLow = 2s
#**.routerEg.ppp[1].ppp.tNormal = 3s
#**.routerEg.ppp[1].ppp.lowDatarate = 150Mbps


#**.router5.ppp[1].ppp.rateConfig = ${xmldoc("B_2019.12.16_13.40.04.xml"),xmldoc("B_2020.01.16_10.43.34.xml"),xmldoc("B_2020.02.13_13.57.29.xml"),xmldoc("B_2020.02.14_13.21.26.xml"),xmldoc("B_2020.02.27_18.39.27.xml")}
#
#**.router5.ppp[1].queueType           = "ABCQueue"
#**.router5.ppp[1].queue.interval      = 0.025
#**.router5.ppp[1].queue.delayThreshlod = 0.001
#**.router5.ppp[1].queue.delta         = 0.3
#**.router5.ppp[1].queue.no     = 1
#**.router5.ppp[1].queue.frameCapacity = 10000

#**.ppp[*].queueType           = "ABCQueue"
#**.ppp[*].queue.interval      = 0.001
#**.ppp[*].queue.delayThreshlod = 0.0001
#**.ppp[*].queue.delta         = 0.06
#**.ppp[*].queue.frameCapacity = 1000
#
**.ppp[*].queueType = "DropTailQueue" # in routers
**.ppp[*].queue.frameCapacity = 10000#6, ,,, 175

**.tcp.tcpAlgorithmClass = "ABC"                 # TCPReno/TCPTahoe/TCPNewReno/TCPNoCongestionControl/DumbTCP
**.tcp.sackSupport = false       
**.tcp.ldatarate = 500Mbps
**.tcp.lpacing = false
**.tcp2.tcpAlgorithmClass = "ABC"                 # TCPReno/TCPTahoe/TCPNewReno/TCPNoCongestionControl/DumbTCP
**.tcp2.sackSupport = false                            # Selective Acknowledgment (RFC 2018, 2883, 3517) support (header option) (SACK will be enabled for a connection if both endpoints support it)
**.tcp2.ldatarate = 500Mbps
**.tcp2.lpacing = false
**.tcp.windowScalingSupport = true
**.tcp.advertisedWindow = 65535000
**.tcp2.windowScalingSupport = true
**.tcp2.advertisedWindow = 65535000

[Config ABC1-5g-R1]
extends = ABC1-5g
sim-time-limit = 100s

**.router1.ppp[1].ppp.rateConfig = ${xmldoc("B_2019.12.16_13.40.04.xml"),xmldoc("B_2020.01.16_10.43.34.xml"),xmldoc("B_2020.02.13_13.57.29.xml"),xmldoc("B_2020.02.14_13.21.26.xml"),xmldoc("B_2020.02.27_18.39.27.xml")}

**.router1.ppp[1].queueType           = "ABCQueue"
**.router1.ppp[1].queue.interval      = 0.025
**.router1.ppp[1].queue.delayThreshlod = 0.001
**.router1.ppp[1].queue.delta         = 0.3
**.router1.ppp[1].queue.no     = 1
**.router1.ppp[1].queue.frameCapacity = 10000

[Config ABC1-5g-C11]
extends = ABC1-5g
sim-time-limit = 100s

**.client11.ppp[0].ppp.rateConfig = ${xmldoc("B_2019.12.16_13.40.04.xml"),xmldoc("B_2020.01.16_10.43.34.xml"),xmldoc("B_2020.02.13_13.57.29.xml"),xmldoc("B_2020.02.14_13.21.26.xml"),xmldoc("B_2020.02.27_18.39.27.xml")}

**.client11.ppp[0].queueType           = "ABCQueue"
**.client11.ppp[0].queue.interval      = 0.025
**.client11.ppp[0].queue.delayThreshlod = 0.001
**.client11.ppp[0].queue.delta         = 0.3
**.client11.ppp[0].queue.no     = 1
**.client11.ppp[0].queue.frameCapacity = 10000


[Config ABC1-5g-C11-R5]
extends = ABC1-5g
sim-time-limit = 100s

**.client11.ppp[0].ppp.rateConfig = ${xmldoc("B_2019.12.16_13.40.04.xml"),xmldoc("B_2020.01.16_10.43.34.xml"),xmldoc("B_2020.02.13_13.57.29.xml"),xmldoc("B_2020.02.14_13.21.26.xml"),xmldoc("B_2020.02.27_18.39.27.xml")}

**.client11.ppp[0].queueType           = "ABCQueue"
**.client11.ppp[0].queue.interval      = 0.025
**.client11.ppp[0].queue.delayThreshlod = 0.001
**.client11.ppp[0].queue.delta         = 0.3
**.client11.ppp[0].queue.no     = 1
**.client11.ppp[0].queue.frameCapacity = 10000

**.router5.ppp[1].ppp.rateConfig = ${xmldoc("B_2019.12.16_13.40.04.xml"),xmldoc("B_2020.01.16_10.43.34.xml"),xmldoc("B_2020.02.13_13.57.29.xml"),xmldoc("B_2020.02.14_13.21.26.xml"),xmldoc("B_2020.02.27_18.39.27.xml")}

**.router5.ppp[1].queueType           = "ABCQueue"
**.router5.ppp[1].queue.interval      = 0.025
**.router5.ppp[1].queue.delayThreshlod = 0.001
**.router5.ppp[1].queue.delta         = 0.3
**.router5.ppp[1].queue.no     = 1
**.router5.ppp[1].queue.frameCapacity = 10000


############################################################## Chained-LGC-Comparison
[Config LGCC1-5g]
network = chainLong
sim-time-limit = 100s #120.0s, 787s, 475s, 140s, 929s, 140s
chainLong.ldelay = 0.005s 
chainLong.ldatarate = 500Mbps#1Gbps 
chainLong.mdatarate = 500Mbps#1Gbps 

**.client2*.numTcp2Apps = 1
**.client2*.tcp2App[0].typename = "TCPSinkApp"
**.client2*.tcp2App[0].localPort = 1001
**.client2*.numTcpApps = 1
**.client2*.tcpApp[0].typename = "TCPSinkApp"
**.client2*.tcpApp[0].localPort = 1001

**.client11.numTcpApps = 1
**.client11.tcpApp[0].typename = "TCPSessionApp"
**.client11.tcpApp[0].active = true
**.client11.tcpApp[0].localPort = -1
**.client11.tcpApp[0].connectPort = 1001
**.client11.tcpApp[0].tOpen = 0s
**.client11.tcpApp[0].tSend = 0s
**.client11.tcpApp[0].sendBytes = 100000MiB
**.client11.tcpApp[0].sendScript = ""
**.client11.tcpApp[0].tClose = 0s

#**.router5.numRelayApps = 1
#**.router5.relay[0].localPort = 1001
#**.router5.relay[*].remotePort = 1000
#**.router5.relay[0].remoteAddress = "client21"
#**.router5.relay[*].reverse = false
#**.router5.relay[*].sendQueueThreshold = 31250000
#**.router5.ppp[1].ppp.rateConfig = ${xmldoc("B_2019.12.16_13.40.04.xml"),xmldoc("B_2020.01.16_10.43.34.xml"),xmldoc("B_2020.02.13_13.57.29.xml"),xmldoc("B_2020.02.14_13.21.26.xml"),xmldoc("B_2020.02.27_18.39.27.xml")}

#**.client1*.tcpApp[0].dataTransferMode = "bytecount" #"bytestream"
#**.router5.relay[*].dataTransferMode = "bytecount" #"bytestream"
#**.router5.relay[*].dataTransferMode2 = "object" #"bytestream"