[General]

network = ParkingLot

parallel-simulation = false
warnings = true
sim-time-limit = 20s

cmdenv-module-messages = true # for normal (non-express) mode only
cmdenv-event-banners = true   # for normal (non-express) mode only

tkenv-plugin-path = ../../../etc/plugins

**.e*.datarate = 10Mbps
**.e*.delay = 12ms

#
# Network specific settings
#

# set inet_addr, Mask, MTU ( = 1500), default route (=router)
#**.client.routingFile = "client.mrt"
#**.router.routingFile = "router.mrt"
#**.server.routingFile = "server.mrt"

# ip settings
**.ip.procDelay = 0s
**.IPForward = false

# hookType settings
**.ppp[*].numOutputHooks = 1
**.ppp[*].outputHook[0].typename = "OrdinalBasedDropper" # Nop | ThruputMeter | OrdinalBasedDropper | OrdinalBasedDuplicator

# ARP settings
**.arp.retryTimeout = 1s
**.arp.retryCount = 3
**.arp.cacheTimeout = 100s


**.tcp.delayedAcksEnabled = false                    # delayed ACK algorithm (RFC 1122) enabled/disabled
**.tcp.nagleEnabled = false                           # Nagle's algorithm (RFC 896) enabled/disabled
**.tcp.limitedTransmitEnabled = false                # Limited Transmit algorithm (RFC 3042) enabled/disabled (can be used for TCPReno/TCPTahoe/TCPNewReno/TCPNoCongestionControl)
**.tcp.increasedIWEnabled = false                    # Increased Initial Window (RFC 3390) enabled/disabled
**.tcp.sackSupport = true                            # Selective Acknowledgment (RFC 2018, 2883, 3517) support (header option) (SACK will be enabled for a connection if both endpoints support it)
**.tcp.windowScalingSupport = true                  # Window Scale (RFC 1323) support (header option) (WS will be enabled for a connection if both endpoints support it)
**.tcp.timestampSupport = false                      # Timestamps (RFC 1323) support (header option) (TS will be enabled for a connection if both endpoints support it)
**.tcp.tcpAlgorithmClass = "TCPReno"                 # TCPReno/TCPTahoe/TCPNewReno/TCPNoCongestionControl/DumbTCP
**.tcp.advertisedWindow = 500000
**.tcp.recordStats = true
**.tcp.mss = 1460


[Config Primal]
network = ParkingLot
sim-time-limit = 15s

# result-dir = /run/media/peymant/My Passport/Peyman/ECNNUM-results

**.tcp.sackSupport = false
**.tcp.tcpAlgorithmClass = "ECNNUMP2"
**.tcp.mss = 400 #1460

**.client*.tcp.ldatarate = 1Gbps
**.client*.tcp.param1 = 1.2 #1.5
**.client*.tcp.param2 = 10 #10 for 200 mss, 2 for 1460 mss	
**.client*.tcp.param3 = ${13}	# start time of recoding send rate

**.client*.numTcpApps = 1 
**.client1*.tcpApp[0].typename = "TCPSessionApp"
**.client2*.tcpApp[0].typename = "TCPSinkApp"
**.client2*.tcpApp[0].localPort = 1000

**.client1*.tcpApp[0].active = true
**.client1*.tcpApp[0].localPort = -1
**.client1*.tcpApp[0].sendBytes = 10000MiB
**.client1*.tcpApp[0].sendScript = ""
**.client1*.tcpApp[0].tClose = 0s
**.client1*.tcpApp[0].connectPort = 1000
**.client1*.tcpApp[0].tOpen = 1s


**.client11.tcpApp[0].connectAddress = "client21"
**.client111.tcpApp[0].connectAddress = "client211"
**.client112.tcpApp[0].connectAddress = "client212"
**.client113.tcpApp[0].connectAddress = "client213"
**.client114.tcpApp[0].connectAddress = "client214"
**.client115.tcpApp[0].connectAddress = "client215"
**.client116.tcpApp[0].connectAddress = "client216"
**.client117.tcpApp[0].connectAddress = "client217"
**.client118.tcpApp[0].connectAddress = "client218"
**.client119.tcpApp[0].connectAddress = "client219"
**.client1110.tcpApp[0].connectAddress = "client2110"
**.client1111.tcpApp[0].connectAddress = "client2111"
**.client1112.tcpApp[0].connectAddress = "client2112"
**.client1113.tcpApp[0].connectAddress = "client2113"
**.client1114.tcpApp[0].connectAddress = "client2114"
**.client1115.tcpApp[0].connectAddress = "client2115"
**.client1116.tcpApp[0].connectAddress = "client2116"
**.client1117.tcpApp[0].connectAddress = "client2117"
**.client1118.tcpApp[0].connectAddress = "client2118"
**.client1119.tcpApp[0].connectAddress = "client2119"
**.client1120.tcpApp[0].connectAddress = "client2120"
**.client1121.tcpApp[0].connectAddress = "client2121"
**.client1122.tcpApp[0].connectAddress = "client2122"
**.client1123.tcpApp[0].connectAddress = "client2123"
**.client1124.tcpApp[0].connectAddress = "client2124"
**.client1125.tcpApp[0].connectAddress = "client2125"
**.client1126.tcpApp[0].connectAddress = "client2126"
**.client1127.tcpApp[0].connectAddress = "client2127"
**.client1128.tcpApp[0].connectAddress = "client2128"
**.client1129.tcpApp[0].connectAddress = "client2129"



**.client11.tcpApp[0].tSend = max(((${s = 1..30 step 1} - 30) * 100) * 1s, 0s) + uniform(3.0s, 3.001s)
**.client111.tcpApp[0].tSend = max(((${s} - 30 + 1) * 100) * 1s, 0s) + uniform(3.0s, 3.001s)
**.client112.tcpApp[0].tSend = max(((${s} - 30 + 2) * 100) * 1s, 0s) + uniform(3.0s, 3.001s)
**.client113.tcpApp[0].tSend = max(((${s} - 30 + 3) * 100) * 1s, 0s) + uniform(3.0s, 3.001s)
**.client114.tcpApp[0].tSend = max(((${s} - 30 + 4) * 100) * 1s, 0s) + uniform(3.0s, 3.001s)
**.client115.tcpApp[0].tSend = max(((${s} - 30 + 5) * 100) * 1s, 0s) + uniform(3.0s, 3.001s)
**.client116.tcpApp[0].tSend = max(((${s} - 30 + 6) * 100) * 1s, 0s) + uniform(3.0s, 3.001s)
**.client117.tcpApp[0].tSend = max(((${s} - 30 + 7) * 100) * 1s, 0s) + uniform(3.0s, 3.001s)
**.client118.tcpApp[0].tSend = max(((${s} - 30 + 8) * 100) * 1s, 0s) + uniform(3.0s, 3.001s)
**.client119.tcpApp[0].tSend = max(((${s} - 30 + 9) * 100) * 1s, 0s) + uniform(3.0s, 3.001s)
**.client1110.tcpApp[0].tSend = max(((${s} - 30 + 10) * 100) * 1s, 0s) + uniform(3.0s, 3.001s)
**.client1111.tcpApp[0].tSend = max(((${s} - 30 + 11) * 100) * 1s, 0s) + uniform(3.0s, 3.001s)
**.client1112.tcpApp[0].tSend = max(((${s} - 30 + 12) * 100) * 1s, 0s) + uniform(3.0s, 3.001s)
**.client1113.tcpApp[0].tSend = max(((${s} - 30 + 13) * 100) * 1s, 0s) + uniform(3.0s, 3.001s)
**.client1114.tcpApp[0].tSend = max(((${s} - 30 + 14) * 100) * 1s, 0s) + uniform(3.0s, 3.001s)
**.client1115.tcpApp[0].tSend = max(((${s} - 30 + 15) * 100) * 1s, 0s) + uniform(3.0s, 3.001s)
**.client1116.tcpApp[0].tSend = max(((${s} - 30 + 16) * 100) * 1s, 0s) + uniform(3.0s, 3.001s)
**.client1117.tcpApp[0].tSend = max(((${s} - 30 + 17) * 100) * 1s, 0s) + uniform(3.0s, 3.001s)
**.client1118.tcpApp[0].tSend = max(((${s} - 30 + 18) * 100) * 1s, 0s) + uniform(3.0s, 3.001s)
**.client1119.tcpApp[0].tSend = max(((${s} - 30 + 19) * 100) * 1s, 0s) + uniform(3.0s, 3.001s)
**.client1120.tcpApp[0].tSend = max(((${s} - 30 + 20) * 100) * 1s, 0s) + uniform(3.0s, 3.001s)
**.client1121.tcpApp[0].tSend = max(((${s} - 30 + 21) * 100) * 1s, 0s) + uniform(3.0s, 3.001s)
**.client1122.tcpApp[0].tSend = max(((${s} - 30 + 22) * 100) * 1s, 0s) + uniform(3.0s, 3.001s)
**.client1123.tcpApp[0].tSend = max(((${s} - 30 + 23) * 100) * 1s, 0s) + uniform(3.0s, 3.001s)
**.client1124.tcpApp[0].tSend = max(((${s} - 30 + 24) * 100) * 1s, 0s) + uniform(3.0s, 3.001s)
**.client1125.tcpApp[0].tSend = max(((${s} - 30 + 25) * 100) * 1s, 0s) + uniform(3.0s, 3.001s)
**.client1126.tcpApp[0].tSend = max(((${s} - 30 + 26) * 100) * 1s, 0s) + uniform(3.0s, 3.001s)
**.client1127.tcpApp[0].tSend = max(((${s} - 30 + 27) * 100) * 1s, 0s) + uniform(3.0s, 3.001s)
**.client1128.tcpApp[0].tSend = max(((${s} - 30 + 28) * 100) * 1s, 0s) + uniform(3.0s, 3.001s)
**.client1129.tcpApp[0].tSend = max(((${s} - 30 + 29) * 100) * 1s, 0s) + uniform(3.0s, 3.001s)

seed-set=${0, 1, 2, 3, 4, 5, 6, 7, 8, 9}


**.client12.tcpApp[0].connectAddress = "client22"
**.client121.tcpApp[0].connectAddress = "client221"
**.client122.tcpApp[0].connectAddress = "client222"
**.client123.tcpApp[0].connectAddress = "client223"
**.client124.tcpApp[0].connectAddress = "client224"
**.client125.tcpApp[0].connectAddress = "client225"
**.client126.tcpApp[0].connectAddress = "client226"
**.client127.tcpApp[0].connectAddress = "client227"

**.client12.tcpApp[0].tSend = uniform(3.0s, 3.001s)
**.client121.tcpApp[0].tSend = uniform(3.0s, 3.001s)
**.client122.tcpApp[0].tSend = uniform(3.0s, 3.001s)
**.client123.tcpApp[0].tSend = uniform(3.0s, 3.001s)
**.client124.tcpApp[0].tSend = uniform(3.0s, 3.001s)
**.client125.tcpApp[0].tSend = uniform(3.0s, 3.001s)
**.client126.tcpApp[0].tSend = uniform(3.0s, 3.001s)
**.client127.tcpApp[0].tSend = uniform(3.0s, 3.001s)


**.client13.tcpApp[0].connectAddress = "client23"
**.client131.tcpApp[0].connectAddress = "client231"
**.client132.tcpApp[0].connectAddress = "client232"
**.client133.tcpApp[0].connectAddress = "client233"
**.client134.tcpApp[0].connectAddress = "client234"
**.client135.tcpApp[0].connectAddress = "client235"
**.client136.tcpApp[0].connectAddress = "client236"
**.client137.tcpApp[0].connectAddress = "client237"

**.client13.tcpApp[0].tSend = uniform(3.0s, 3.001s) + 0.001s
**.client131.tcpApp[0].tSend = uniform(3.0s, 3.001s) + 0.001s
**.client132.tcpApp[0].tSend = uniform(3.0s, 3.001s) + 0.001s
**.client133.tcpApp[0].tSend = uniform(3.0s, 3.001s) + 0.001s
**.client134.tcpApp[0].tSend = uniform(3.0s, 3.001s) + 0.001s
**.client135.tcpApp[0].tSend = uniform(3.0s, 3.001s) + 0.001s
**.client136.tcpApp[0].tSend = uniform(3.0s, 3.001s) + 0.001s
**.client137.tcpApp[0].tSend = uniform(3.0s, 3.001s) + 0.001s

**.client14.tcpApp[0].connectAddress = "client24"
**.client141.tcpApp[0].connectAddress = "client241"
**.client142.tcpApp[0].connectAddress = "client242"
**.client143.tcpApp[0].connectAddress = "client243"
**.client144.tcpApp[0].connectAddress = "client244"
**.client145.tcpApp[0].connectAddress = "client245"
**.client146.tcpApp[0].connectAddress = "client246"
**.client147.tcpApp[0].connectAddress = "client247"

**.client14.tcpApp[0].tSend = uniform(3.0s, 3.001s) + 0.002s
**.client141.tcpApp[0].tSend = uniform(3.0s, 3.001s) + 0.002s
**.client142.tcpApp[0].tSend = uniform(3.0s, 3.001s) + 0.002s
**.client143.tcpApp[0].tSend = uniform(3.0s, 3.001s) + 0.002s
**.client144.tcpApp[0].tSend = uniform(3.0s, 3.001s) + 0.002s
**.client145.tcpApp[0].tSend = uniform(3.0s, 3.001s) + 0.002s
**.client146.tcpApp[0].tSend = uniform(3.0s, 3.001s) + 0.002s
**.client147.tcpApp[0].tSend = uniform(3.0s, 3.001s) + 0.002s

**.client15.tcpApp[0].connectAddress = "client25"
**.client151.tcpApp[0].connectAddress = "client251"
**.client152.tcpApp[0].connectAddress = "client252"
**.client153.tcpApp[0].connectAddress = "client253"
**.client154.tcpApp[0].connectAddress = "client254"
**.client155.tcpApp[0].connectAddress = "client255"
**.client156.tcpApp[0].connectAddress = "client256"
**.client157.tcpApp[0].connectAddress = "client257"

**.client15.tcpApp[0].tSend = uniform(3.0s, 3.001s) + 0.003s
**.client151.tcpApp[0].tSend = uniform(3.0s, 3.001s) + 0.003s
**.client152.tcpApp[0].tSend = uniform(3.0s, 3.001s) + 0.003s
**.client153.tcpApp[0].tSend = uniform(3.0s, 3.001s) + 0.003s
**.client154.tcpApp[0].tSend = uniform(3.0s, 3.001s) + 0.003s
**.client155.tcpApp[0].tSend = uniform(3.0s, 3.001s) + 0.003s
**.client156.tcpApp[0].tSend = uniform(3.0s, 3.001s) + 0.003s
**.client157.tcpApp[0].tSend = uniform(3.0s, 3.001s) + 0.003s

**.client16.tcpApp[0].connectAddress = "client26"
**.client161.tcpApp[0].connectAddress = "client261"
**.client162.tcpApp[0].connectAddress = "client262"
**.client163.tcpApp[0].connectAddress = "client263"
**.client164.tcpApp[0].connectAddress = "client264"
**.client165.tcpApp[0].connectAddress = "client265"
**.client166.tcpApp[0].connectAddress = "client266"
**.client167.tcpApp[0].connectAddress = "client267"

**.client16.tcpApp[0].tSend = uniform(3.0s, 3.001s) + 0.004s
**.client161.tcpApp[0].tSend = uniform(3.0s, 3.001s) + 0.004s
**.client162.tcpApp[0].tSend = uniform(3.0s, 3.001s) + 0.004s
**.client163.tcpApp[0].tSend = uniform(3.0s, 3.001s) + 0.004s
**.client164.tcpApp[0].tSend = uniform(3.0s, 3.001s) + 0.004s
**.client165.tcpApp[0].tSend = uniform(3.0s, 3.001s) + 0.004s
**.client166.tcpApp[0].tSend = uniform(3.0s, 3.001s) + 0.004s
**.client167.tcpApp[0].tSend = uniform(3.0s, 3.001s) + 0.004s


**.client1*.tcpApp[0].tSend = 130.0s



**.routerCore*.ppp[*].queueType            = "REDQueueNUM"
**.routerCore*.ppp[*].queue.red.wq         = 0.5
**.routerCore*.ppp[*].queue.red.minths     = "1"
**.routerCore*.ppp[*].queue.red.maxths     = "150"
**.routerCore*.ppp[*].queue.red.maxps      = "1.0"
**.routerCore*.ppp[*].queue.red.pkrates    = "83333.333"
**.routerCore*.ppp[*].queue.red.marks 	   = "1"
**.routerCore*.ppp[*].queue.red.recStart   = 0
**.routerCore*.ppp[*].queueframeCapacity   = 5000


[Config PrimalDual1]
network = ParkingLot
sim-time-limit = 17s

 result-dir = /run/media/peymant/My Passport/Peyman/ECNNUM-results

**.tcp.sackSupport = false
**.tcp.tcpAlgorithmClass = "ECNNUMP2"
**.tcp.mss = 400 #1460

**.client*.tcp.ldatarate = 1Gbps
**.client*.tcp.param1 = 1.2 #1.5
**.client*.tcp.param2 = 10 #10 for 200 mss, 2 for 1460 mss	
**.client*.tcp.param3 = ${12}	# start time of recoding send rate

**.client*.numTcpApps = 1 
**.client1*.tcpApp[0].typename = "TCPSessionApp"
**.client2*.tcpApp[0].typename = "TCPSinkApp"
**.client2*.tcpApp[0].localPort = 1000

**.client1*.tcpApp[0].active = true
**.client1*.tcpApp[0].localPort = -1
**.client1*.tcpApp[0].sendBytes = 10000MiB
**.client1*.tcpApp[0].sendScript = ""
**.client1*.tcpApp[0].tClose = 0s
**.client1*.tcpApp[0].connectPort = 1000
**.client1*.tcpApp[0].tOpen = 1s


**.client11.tcpApp[0].connectAddress = "client21"
**.client111.tcpApp[0].connectAddress = "client211"
**.client112.tcpApp[0].connectAddress = "client212"
**.client113.tcpApp[0].connectAddress = "client213"
**.client114.tcpApp[0].connectAddress = "client214"
**.client115.tcpApp[0].connectAddress = "client215"
**.client116.tcpApp[0].connectAddress = "client216"
**.client117.tcpApp[0].connectAddress = "client217"
**.client118.tcpApp[0].connectAddress = "client218"
**.client119.tcpApp[0].connectAddress = "client219"
**.client1110.tcpApp[0].connectAddress = "client2110"
**.client1111.tcpApp[0].connectAddress = "client2111"
**.client1112.tcpApp[0].connectAddress = "client2112"
**.client1113.tcpApp[0].connectAddress = "client2113"
**.client1114.tcpApp[0].connectAddress = "client2114"
**.client1115.tcpApp[0].connectAddress = "client2115"
**.client1116.tcpApp[0].connectAddress = "client2116"
**.client1117.tcpApp[0].connectAddress = "client2117"
**.client1118.tcpApp[0].connectAddress = "client2118"
**.client1119.tcpApp[0].connectAddress = "client2119"
**.client1120.tcpApp[0].connectAddress = "client2120"
**.client1121.tcpApp[0].connectAddress = "client2121"
**.client1122.tcpApp[0].connectAddress = "client2122"
**.client1123.tcpApp[0].connectAddress = "client2123"
**.client1124.tcpApp[0].connectAddress = "client2124"
**.client1125.tcpApp[0].connectAddress = "client2125"
**.client1126.tcpApp[0].connectAddress = "client2126"
**.client1127.tcpApp[0].connectAddress = "client2127"
**.client1128.tcpApp[0].connectAddress = "client2128"
**.client1129.tcpApp[0].connectAddress = "client2129"



**.client11.tcpApp[0].tSend = max(((${s = 1..30 step 1} - 30) * 100) * 1s, 0s) + uniform(3.0s, 3.001s)
**.client111.tcpApp[0].tSend = max(((${s} - 30 + 1) * 100) * 1s, 0s) + uniform(3.0s, 3.001s)
**.client112.tcpApp[0].tSend = max(((${s} - 30 + 2) * 100) * 1s, 0s) + uniform(3.0s, 3.001s)
**.client113.tcpApp[0].tSend = max(((${s} - 30 + 3) * 100) * 1s, 0s) + uniform(3.0s, 3.001s)
**.client114.tcpApp[0].tSend = max(((${s} - 30 + 4) * 100) * 1s, 0s) + uniform(3.0s, 3.001s)
**.client115.tcpApp[0].tSend = max(((${s} - 30 + 5) * 100) * 1s, 0s) + uniform(3.0s, 3.001s)
**.client116.tcpApp[0].tSend = max(((${s} - 30 + 6) * 100) * 1s, 0s) + uniform(3.0s, 3.001s)
**.client117.tcpApp[0].tSend = max(((${s} - 30 + 7) * 100) * 1s, 0s) + uniform(3.0s, 3.001s)
**.client118.tcpApp[0].tSend = max(((${s} - 30 + 8) * 100) * 1s, 0s) + uniform(3.0s, 3.001s)
**.client119.tcpApp[0].tSend = max(((${s} - 30 + 9) * 100) * 1s, 0s) + uniform(3.0s, 3.001s)
**.client1110.tcpApp[0].tSend = max(((${s} - 30 + 10) * 100) * 1s, 0s) + uniform(3.0s, 3.001s)
**.client1111.tcpApp[0].tSend = max(((${s} - 30 + 11) * 100) * 1s, 0s) + uniform(3.0s, 3.001s)
**.client1112.tcpApp[0].tSend = max(((${s} - 30 + 12) * 100) * 1s, 0s) + uniform(3.0s, 3.001s)
**.client1113.tcpApp[0].tSend = max(((${s} - 30 + 13) * 100) * 1s, 0s) + uniform(3.0s, 3.001s)
**.client1114.tcpApp[0].tSend = max(((${s} - 30 + 14) * 100) * 1s, 0s) + uniform(3.0s, 3.001s)
**.client1115.tcpApp[0].tSend = max(((${s} - 30 + 15) * 100) * 1s, 0s) + uniform(3.0s, 3.001s)
**.client1116.tcpApp[0].tSend = max(((${s} - 30 + 16) * 100) * 1s, 0s) + uniform(3.0s, 3.001s)
**.client1117.tcpApp[0].tSend = max(((${s} - 30 + 17) * 100) * 1s, 0s) + uniform(3.0s, 3.001s)
**.client1118.tcpApp[0].tSend = max(((${s} - 30 + 18) * 100) * 1s, 0s) + uniform(3.0s, 3.001s)
**.client1119.tcpApp[0].tSend = max(((${s} - 30 + 19) * 100) * 1s, 0s) + uniform(3.0s, 3.001s)
**.client1120.tcpApp[0].tSend = max(((${s} - 30 + 20) * 100) * 1s, 0s) + uniform(3.0s, 3.001s)
**.client1121.tcpApp[0].tSend = max(((${s} - 30 + 21) * 100) * 1s, 0s) + uniform(3.0s, 3.001s)
**.client1122.tcpApp[0].tSend = max(((${s} - 30 + 22) * 100) * 1s, 0s) + uniform(3.0s, 3.001s)
**.client1123.tcpApp[0].tSend = max(((${s} - 30 + 23) * 100) * 1s, 0s) + uniform(3.0s, 3.001s)
**.client1124.tcpApp[0].tSend = max(((${s} - 30 + 24) * 100) * 1s, 0s) + uniform(3.0s, 3.001s)
**.client1125.tcpApp[0].tSend = max(((${s} - 30 + 25) * 100) * 1s, 0s) + uniform(3.0s, 3.001s)
**.client1126.tcpApp[0].tSend = max(((${s} - 30 + 26) * 100) * 1s, 0s) + uniform(3.0s, 3.001s)
**.client1127.tcpApp[0].tSend = max(((${s} - 30 + 27) * 100) * 1s, 0s) + uniform(3.0s, 3.001s)
**.client1128.tcpApp[0].tSend = max(((${s} - 30 + 28) * 100) * 1s, 0s) + uniform(3.0s, 3.001s)
**.client1129.tcpApp[0].tSend = max(((${s} - 30 + 29) * 100) * 1s, 0s) + uniform(3.0s, 3.001s)

seed-set=${0, 1, 2, 3, 4, 5, 6, 7, 8, 9}


**.client12.tcpApp[0].connectAddress = "client22"
**.client121.tcpApp[0].connectAddress = "client221"
**.client122.tcpApp[0].connectAddress = "client222"
**.client123.tcpApp[0].connectAddress = "client223"
**.client124.tcpApp[0].connectAddress = "client224"
**.client125.tcpApp[0].connectAddress = "client225"
**.client126.tcpApp[0].connectAddress = "client226"
**.client127.tcpApp[0].connectAddress = "client227"

**.client12.tcpApp[0].tSend = uniform(3.0s, 3.001s)
**.client121.tcpApp[0].tSend = uniform(3.0s, 3.001s)
**.client122.tcpApp[0].tSend = uniform(3.0s, 3.001s)
**.client123.tcpApp[0].tSend = uniform(3.0s, 3.001s)
**.client124.tcpApp[0].tSend = uniform(3.0s, 3.001s)
**.client125.tcpApp[0].tSend = uniform(3.0s, 3.001s)
**.client126.tcpApp[0].tSend = uniform(3.0s, 3.001s)
**.client127.tcpApp[0].tSend = uniform(3.0s, 3.001s)


**.client13.tcpApp[0].connectAddress = "client23"
**.client131.tcpApp[0].connectAddress = "client231"
**.client132.tcpApp[0].connectAddress = "client232"
**.client133.tcpApp[0].connectAddress = "client233"
**.client134.tcpApp[0].connectAddress = "client234"
**.client135.tcpApp[0].connectAddress = "client235"
**.client136.tcpApp[0].connectAddress = "client236"
**.client137.tcpApp[0].connectAddress = "client237"

**.client13.tcpApp[0].tSend = uniform(3.0s, 3.001s) + 0.001s
**.client131.tcpApp[0].tSend = uniform(3.0s, 3.001s) + 0.001s
**.client132.tcpApp[0].tSend = uniform(3.0s, 3.001s) + 0.001s
**.client133.tcpApp[0].tSend = uniform(3.0s, 3.001s) + 0.001s
**.client134.tcpApp[0].tSend = uniform(3.0s, 3.001s) + 0.001s
**.client135.tcpApp[0].tSend = uniform(3.0s, 3.001s) + 0.001s
**.client136.tcpApp[0].tSend = uniform(3.0s, 3.001s) + 0.001s
**.client137.tcpApp[0].tSend = uniform(3.0s, 3.001s) + 0.001s

**.client14.tcpApp[0].connectAddress = "client24"
**.client141.tcpApp[0].connectAddress = "client241"
**.client142.tcpApp[0].connectAddress = "client242"
**.client143.tcpApp[0].connectAddress = "client243"
**.client144.tcpApp[0].connectAddress = "client244"
**.client145.tcpApp[0].connectAddress = "client245"
**.client146.tcpApp[0].connectAddress = "client246"
**.client147.tcpApp[0].connectAddress = "client247"

**.client14.tcpApp[0].tSend = uniform(3.0s, 3.001s) + 0.002s
**.client141.tcpApp[0].tSend = uniform(3.0s, 3.001s) + 0.002s
**.client142.tcpApp[0].tSend = uniform(3.0s, 3.001s) + 0.002s
**.client143.tcpApp[0].tSend = uniform(3.0s, 3.001s) + 0.002s
**.client144.tcpApp[0].tSend = uniform(3.0s, 3.001s) + 0.002s
**.client145.tcpApp[0].tSend = uniform(3.0s, 3.001s) + 0.002s
**.client146.tcpApp[0].tSend = uniform(3.0s, 3.001s) + 0.002s
**.client147.tcpApp[0].tSend = uniform(3.0s, 3.001s) + 0.002s

**.client15.tcpApp[0].connectAddress = "client25"
**.client151.tcpApp[0].connectAddress = "client251"
**.client152.tcpApp[0].connectAddress = "client252"
**.client153.tcpApp[0].connectAddress = "client253"
**.client154.tcpApp[0].connectAddress = "client254"
**.client155.tcpApp[0].connectAddress = "client255"
**.client156.tcpApp[0].connectAddress = "client256"
**.client157.tcpApp[0].connectAddress = "client257"

**.client15.tcpApp[0].tSend = uniform(3.0s, 3.001s) + 0.003s
**.client151.tcpApp[0].tSend = uniform(3.0s, 3.001s) + 0.003s
**.client152.tcpApp[0].tSend = uniform(3.0s, 3.001s) + 0.003s
**.client153.tcpApp[0].tSend = uniform(3.0s, 3.001s) + 0.003s
**.client154.tcpApp[0].tSend = uniform(3.0s, 3.001s) + 0.003s
**.client155.tcpApp[0].tSend = uniform(3.0s, 3.001s) + 0.003s
**.client156.tcpApp[0].tSend = uniform(3.0s, 3.001s) + 0.003s
**.client157.tcpApp[0].tSend = uniform(3.0s, 3.001s) + 0.003s

**.client16.tcpApp[0].connectAddress = "client26"
**.client161.tcpApp[0].connectAddress = "client261"
**.client162.tcpApp[0].connectAddress = "client262"
**.client163.tcpApp[0].connectAddress = "client263"
**.client164.tcpApp[0].connectAddress = "client264"
**.client165.tcpApp[0].connectAddress = "client265"
**.client166.tcpApp[0].connectAddress = "client266"
**.client167.tcpApp[0].connectAddress = "client267"

**.client16.tcpApp[0].tSend = uniform(3.0s, 3.001s) + 0.004s
**.client161.tcpApp[0].tSend = uniform(3.0s, 3.001s) + 0.004s
**.client162.tcpApp[0].tSend = uniform(3.0s, 3.001s) + 0.004s
**.client163.tcpApp[0].tSend = uniform(3.0s, 3.001s) + 0.004s
**.client164.tcpApp[0].tSend = uniform(3.0s, 3.001s) + 0.004s
**.client165.tcpApp[0].tSend = uniform(3.0s, 3.001s) + 0.004s
**.client166.tcpApp[0].tSend = uniform(3.0s, 3.001s) + 0.004s
**.client167.tcpApp[0].tSend = uniform(3.0s, 3.001s) + 0.004s


**.client1*.tcpApp[0].tSend = 130.0s



**.routerCore*.ppp[2].queueType            = "REDQueueNUMDual"
**.routerCore*.ppp[2].queue.red.wq         = 0.5
**.routerCore*.ppp[2].queue.red.minths     = "2"
**.routerCore*.ppp[2].queue.red.maxths     = "300"
**.routerCore*.ppp[2].queue.red.maxps      = "1.0"
**.routerCore*.ppp[2].queue.red.pkrates    = "284090.909"
**.routerCore*.ppp[2].queue.red.marks 	   = "1"
**.routerCore*.ppp[2].queue.red.recStart   = 0
**.routerCore*.ppp[2].queue.red.alpha      = 0.5
**.routerCore*.ppp[2].queue.red.beta      = 0.00005
**.routerCore*.ppp[2].queueframeCapacity   = 5000


[Config PrimalDual2]
network = ParkingLot
sim-time-limit = 17s

# result-dir = /run/media/peymant/My Passport/Peyman/ECNNUM-results

**.tcp.sackSupport = false
**.tcp.tcpAlgorithmClass = "ECNNUMP2"
**.tcp.mss = 400 #1460

**.client*.tcp.ldatarate = 1Gbps
**.client*.tcp.param1 = 1.2 #1.5
**.client*.tcp.param2 = 10 #10 for 200 mss, 2 for 1460 mss	
**.client*.tcp.param3 = ${12}	# start time of recoding send rate

**.client*.numTcpApps = 1 
**.client1*.tcpApp[0].typename = "TCPSessionApp"
**.client2*.tcpApp[0].typename = "TCPSinkApp"
**.client2*.tcpApp[0].localPort = 1000

**.client1*.tcpApp[0].active = true
**.client1*.tcpApp[0].localPort = -1
**.client1*.tcpApp[0].sendBytes = 10000MiB
**.client1*.tcpApp[0].sendScript = ""
**.client1*.tcpApp[0].tClose = 0s
**.client1*.tcpApp[0].connectPort = 1000
**.client1*.tcpApp[0].tOpen = 1s


**.client11.tcpApp[0].connectAddress = "client21"
**.client111.tcpApp[0].connectAddress = "client211"
**.client112.tcpApp[0].connectAddress = "client212"
**.client113.tcpApp[0].connectAddress = "client213"
**.client114.tcpApp[0].connectAddress = "client214"
**.client115.tcpApp[0].connectAddress = "client215"
**.client116.tcpApp[0].connectAddress = "client216"
**.client117.tcpApp[0].connectAddress = "client217"
**.client118.tcpApp[0].connectAddress = "client218"
**.client119.tcpApp[0].connectAddress = "client219"
**.client1110.tcpApp[0].connectAddress = "client2110"
**.client1111.tcpApp[0].connectAddress = "client2111"
**.client1112.tcpApp[0].connectAddress = "client2112"
**.client1113.tcpApp[0].connectAddress = "client2113"
**.client1114.tcpApp[0].connectAddress = "client2114"
**.client1115.tcpApp[0].connectAddress = "client2115"
**.client1116.tcpApp[0].connectAddress = "client2116"
**.client1117.tcpApp[0].connectAddress = "client2117"
**.client1118.tcpApp[0].connectAddress = "client2118"
**.client1119.tcpApp[0].connectAddress = "client2119"
**.client1120.tcpApp[0].connectAddress = "client2120"
**.client1121.tcpApp[0].connectAddress = "client2121"
**.client1122.tcpApp[0].connectAddress = "client2122"
**.client1123.tcpApp[0].connectAddress = "client2123"
**.client1124.tcpApp[0].connectAddress = "client2124"
**.client1125.tcpApp[0].connectAddress = "client2125"
**.client1126.tcpApp[0].connectAddress = "client2126"
**.client1127.tcpApp[0].connectAddress = "client2127"
**.client1128.tcpApp[0].connectAddress = "client2128"
**.client1129.tcpApp[0].connectAddress = "client2129"



**.client11.tcpApp[0].tSend = max(((${s = 1..30 step 1} - 30) * 100) * 1s, 0s) + uniform(3.0s, 3.001s)
**.client111.tcpApp[0].tSend = max(((${s} - 30 + 1) * 100) * 1s, 0s) + uniform(3.0s, 3.001s)
**.client112.tcpApp[0].tSend = max(((${s} - 30 + 2) * 100) * 1s, 0s) + uniform(3.0s, 3.001s)
**.client113.tcpApp[0].tSend = max(((${s} - 30 + 3) * 100) * 1s, 0s) + uniform(3.0s, 3.001s)
**.client114.tcpApp[0].tSend = max(((${s} - 30 + 4) * 100) * 1s, 0s) + uniform(3.0s, 3.001s)
**.client115.tcpApp[0].tSend = max(((${s} - 30 + 5) * 100) * 1s, 0s) + uniform(3.0s, 3.001s)
**.client116.tcpApp[0].tSend = max(((${s} - 30 + 6) * 100) * 1s, 0s) + uniform(3.0s, 3.001s)
**.client117.tcpApp[0].tSend = max(((${s} - 30 + 7) * 100) * 1s, 0s) + uniform(3.0s, 3.001s)
**.client118.tcpApp[0].tSend = max(((${s} - 30 + 8) * 100) * 1s, 0s) + uniform(3.0s, 3.001s)
**.client119.tcpApp[0].tSend = max(((${s} - 30 + 9) * 100) * 1s, 0s) + uniform(3.0s, 3.001s)
**.client1110.tcpApp[0].tSend = max(((${s} - 30 + 10) * 100) * 1s, 0s) + uniform(3.0s, 3.001s)
**.client1111.tcpApp[0].tSend = max(((${s} - 30 + 11) * 100) * 1s, 0s) + uniform(3.0s, 3.001s)
**.client1112.tcpApp[0].tSend = max(((${s} - 30 + 12) * 100) * 1s, 0s) + uniform(3.0s, 3.001s)
**.client1113.tcpApp[0].tSend = max(((${s} - 30 + 13) * 100) * 1s, 0s) + uniform(3.0s, 3.001s)
**.client1114.tcpApp[0].tSend = max(((${s} - 30 + 14) * 100) * 1s, 0s) + uniform(3.0s, 3.001s)
**.client1115.tcpApp[0].tSend = max(((${s} - 30 + 15) * 100) * 1s, 0s) + uniform(3.0s, 3.001s)
**.client1116.tcpApp[0].tSend = max(((${s} - 30 + 16) * 100) * 1s, 0s) + uniform(3.0s, 3.001s)
**.client1117.tcpApp[0].tSend = max(((${s} - 30 + 17) * 100) * 1s, 0s) + uniform(3.0s, 3.001s)
**.client1118.tcpApp[0].tSend = max(((${s} - 30 + 18) * 100) * 1s, 0s) + uniform(3.0s, 3.001s)
**.client1119.tcpApp[0].tSend = max(((${s} - 30 + 19) * 100) * 1s, 0s) + uniform(3.0s, 3.001s)
**.client1120.tcpApp[0].tSend = max(((${s} - 30 + 20) * 100) * 1s, 0s) + uniform(3.0s, 3.001s)
**.client1121.tcpApp[0].tSend = max(((${s} - 30 + 21) * 100) * 1s, 0s) + uniform(3.0s, 3.001s)
**.client1122.tcpApp[0].tSend = max(((${s} - 30 + 22) * 100) * 1s, 0s) + uniform(3.0s, 3.001s)
**.client1123.tcpApp[0].tSend = max(((${s} - 30 + 23) * 100) * 1s, 0s) + uniform(3.0s, 3.001s)
**.client1124.tcpApp[0].tSend = max(((${s} - 30 + 24) * 100) * 1s, 0s) + uniform(3.0s, 3.001s)
**.client1125.tcpApp[0].tSend = max(((${s} - 30 + 25) * 100) * 1s, 0s) + uniform(3.0s, 3.001s)
**.client1126.tcpApp[0].tSend = max(((${s} - 30 + 26) * 100) * 1s, 0s) + uniform(3.0s, 3.001s)
**.client1127.tcpApp[0].tSend = max(((${s} - 30 + 27) * 100) * 1s, 0s) + uniform(3.0s, 3.001s)
**.client1128.tcpApp[0].tSend = max(((${s} - 30 + 28) * 100) * 1s, 0s) + uniform(3.0s, 3.001s)
**.client1129.tcpApp[0].tSend = max(((${s} - 30 + 29) * 100) * 1s, 0s) + uniform(3.0s, 3.001s)

seed-set=${0, 1, 2, 3, 4, 5, 6, 7, 8, 9}


**.client12.tcpApp[0].connectAddress = "client22"
**.client121.tcpApp[0].connectAddress = "client221"
**.client122.tcpApp[0].connectAddress = "client222"
**.client123.tcpApp[0].connectAddress = "client223"
**.client124.tcpApp[0].connectAddress = "client224"
**.client125.tcpApp[0].connectAddress = "client225"
**.client126.tcpApp[0].connectAddress = "client226"
**.client127.tcpApp[0].connectAddress = "client227"

**.client12.tcpApp[0].tSend = uniform(3.0s, 3.001s)
**.client121.tcpApp[0].tSend = uniform(3.0s, 3.001s)
**.client122.tcpApp[0].tSend = uniform(3.0s, 3.001s)
**.client123.tcpApp[0].tSend = uniform(3.0s, 3.001s)
**.client124.tcpApp[0].tSend = uniform(3.0s, 3.001s)
**.client125.tcpApp[0].tSend = uniform(3.0s, 3.001s)
**.client126.tcpApp[0].tSend = uniform(3.0s, 3.001s)
**.client127.tcpApp[0].tSend = uniform(3.0s, 3.001s)


**.client13.tcpApp[0].connectAddress = "client23"
**.client131.tcpApp[0].connectAddress = "client231"
**.client132.tcpApp[0].connectAddress = "client232"
**.client133.tcpApp[0].connectAddress = "client233"
**.client134.tcpApp[0].connectAddress = "client234"
**.client135.tcpApp[0].connectAddress = "client235"
**.client136.tcpApp[0].connectAddress = "client236"
**.client137.tcpApp[0].connectAddress = "client237"
