[General]

network = DCTCPIncast

parallel-simulation = false
warnings = true
sim-time-limit = 20s

cmdenv-module-messages = true # for normal (non-express) mode only
cmdenv-event-banners = true   # for normal (non-express) mode only

tkenv-plugin-path = ../../../etc/plugins

**.e*.datarate = 10Mbps
**.e*.delay = 12ms

#
# Network specific settings
#

# set inet_addr, Mask, MTU ( = 1500), default route (=router)
#**.client.routingFile = "client.mrt"
#**.router.routingFile = "router.mrt"
#**.server.routingFile = "server.mrt"

# ip settings
**.ip.procDelay = 0s
**.IPForward = false

# hookType settings
**.ppp[*].numOutputHooks = 1
**.ppp[*].outputHook[0].typename = "OrdinalBasedDropper" # Nop | ThruputMeter | OrdinalBasedDropper | OrdinalBasedDuplicator

# ARP settings
**.arp.retryTimeout = 1s
**.arp.retryCount = 3
**.arp.cacheTimeout = 100s


**.tcp.delayedAcksEnabled = false                    # delayed ACK algorithm (RFC 1122) enabled/disabled
**.tcp.nagleEnabled = false                           # Nagle's algorithm (RFC 896) enabled/disabled
**.tcp.limitedTransmitEnabled = false                # Limited Transmit algorithm (RFC 3042) enabled/disabled (can be used for TCPReno/TCPTahoe/TCPNewReno/TCPNoCongestionControl)
**.tcp.increasedIWEnabled = false                    # Increased Initial Window (RFC 3390) enabled/disabled
**.tcp.sackSupport = true                            # Selective Acknowledgment (RFC 2018, 2883, 3517) support (header option) (SACK will be enabled for a connection if both endpoints support it)
**.tcp.windowScalingSupport = true                  # Window Scale (RFC 1323) support (header option) (WS will be enabled for a connection if both endpoints support it)
**.tcp.timestampSupport = false                      # Timestamps (RFC 1323) support (header option) (TS will be enabled for a connection if both endpoints support it)
**.tcp.tcpAlgorithmClass = "TCPReno"                 # TCPReno/TCPTahoe/TCPNewReno/TCPNoCongestionControl/DumbTCP
**.tcp.advertisedWindow = 500000
**.tcp.recordStats = true
**.tcp.mss = 1460

#**.tcp2.delayedAcksEnabled = false                    # delayed ACK algorithm (RFC 1122) enabled/disabled
#**.tcp2.nagleEnabled = false                           # Nagle's algorithm (RFC 896) enabled/disabled
#**.tcp2.limitedTransmitEnabled = false                # Limited Transmit algorithm (RFC 3042) enabled/disabled (can be used for TCPReno/TCPTahoe/TCPNewReno/TCPNoCongestionControl)
#**.tcp2.increasedIWEnabled = false                    # Increased Initial Window (RFC 3390) enabled/disabled
#**.tcp2.sackSupport = true                            # Selective Acknowledgment (RFC 2018, 2883, 3517) support (header option) (SACK will be enabled for a connection if both endpoints support it)
#**.tcp2.windowScalingSupport = false                  # Window Scale (RFC 1323) support (header option) (WS will be enabled for a connection if both endpoints support it)
#**.tcp2.timestampSupport = false                      # Timestamps (RFC 1323) support (header option) (TS will be enabled for a connection if both endpoints support it)
#**.tcp2.tcpAlgorithmClass = "TCPReno"                 # TCPReno/TCPTahoe/TCPNewReno/TCPNoCongestionControl/DumbTCP
#**.tcp2.advertisedWindow = 65535
#**.tcp2.recordStats = true

DCTCPIncast.ldelay = 12ms
#tcpValidation.delay = 25ms# ${1.25ms, 6.25ms, 12.5ms, 18.75ms, 25ms, 31.25ms, 37.5ms}
#**.ethg$o[*].channel.delay = 0.1s
#**.ppp[*].channel.delay = 0.1s

## tcp apps
**.client21.numTcpApps = 20
**.client21.tcpApp[*].typename = "TCPSinkApp"
**.client21.tcpApp[0].localPort = 1000
**.client21.tcpApp[1].localPort = 1001
**.client21.tcpApp[2].localPort = 1002
**.client21.tcpApp[3].localPort = 1003
**.client21.tcpApp[4].localPort = 1004
**.client21.tcpApp[5].localPort = 1005
**.client21.tcpApp[6].localPort = 1006
**.client21.tcpApp[7].localPort = 1007
**.client21.tcpApp[8].localPort = 1008
**.client21.tcpApp[9].localPort = 1009
**.client21.tcpApp[10].localPort = 10010
**.client21.tcpApp[11].localPort = 10011
**.client21.tcpApp[12].localPort = 10012
**.client21.tcpApp[13].localPort = 10013
**.client21.tcpApp[14].localPort = 10014
**.client21.tcpApp[15].localPort = 10015
**.client21.tcpApp[16].localPort = 10016
**.client21.tcpApp[17].localPort = 10017
**.client21.tcpApp[18].localPort = 10018
**.client21.tcpApp[19].localPort = 10019
#**.tcp.windowScalingSupport = true
#**.tcp.advertisedWindow = 350000
**.client1*.numTcpApps = 1
**.client1*.tcpApp[*].typename = "TCPSessionApp"
**.client1*.tcpApp[0].active = true
**.client1*.tcpApp[0].localPort = -1
**.client1*.tcpApp[0].connectAddress = "client21"
**.client1*.tcpApp[0].tOpen = 1s
**.client1*.tcpApp[0].sendBytes = 10000MiB
**.client1*.tcpApp[0].sendScript = ""
**.client1*.tcpApp[0].tClose = 0s


**.client11.tcpApp[0].connectPort = 1000
**.client12.tcpApp[0].connectPort = 1001
**.client13.tcpApp[0].connectPort = 1002
**.client14.tcpApp[0].connectPort = 1003
**.client15.tcpApp[0].connectPort = 1004
**.client16.tcpApp[0].connectPort = 1005
**.client17.tcpApp[0].connectPort = 1006
**.client18.tcpApp[0].connectPort = 1007
**.client19.tcpApp[0].connectPort = 1008
**.client110.tcpApp[0].connectPort = 1009
**.client111.tcpApp[0].connectPort = 10010
**.client112.tcpApp[0].connectPort = 10011
**.client113.tcpApp[0].connectPort = 10012
**.client114.tcpApp[0].connectPort = 10013
**.client115.tcpApp[0].connectPort = 10014
**.client116.tcpApp[0].connectPort = 10015
**.client117.tcpApp[0].connectPort = 10016
**.client118.tcpApp[0].connectPort = 10017
**.client119.tcpApp[0].connectPort = 10018
**.client120.tcpApp[0].connectPort = 10019

#**.routerCore.ppp[*].queueType = "DropTailQueue" # in routers
#**.routerCore.ppp[*].queue.frameCapacity = 34

#**.ppp[*].queueType = "REDDropper"
**.routerCore.ppp[20].queueType           = "inet.examples.netperfmeter.REDQueue"
**.routerCore.ppp[20].queue.red.wq        = 1.0
**.routerCore.ppp[20].queue.red.minths     = "0"
**.routerCore.ppp[20].queue.red.maxths     = "10"
**.routerCore.ppp[20].queue.red.maxps      = "0.0"
**.routerCore.ppp[20].queue.red.pkrates    = "1.0"
**.routerCore.ppp[20].queue.red.marks = "1"
**.routerCore.ppp[20].queueframeCapacity = 500
#**.routerCore.ppp[*].queueType = "REDDropper" # in routers
#**.routerCore.ppp[*].queue.frameCapacity = 65
# NIC settings
**.ppp[*].queueType = "DropTailQueue"
**.ppp[*].queue.frameCapacity = 500    # packets


[Config BitDown3]
network = BitDown3
seed-set=${2}
**.e*.datarate = 1Gbps
**.e*.delay = 330.3us

**.tcp.sackSupport = false
**.tcp.tcpAlgorithmClass = "ECNNUM"

**.client*.tcp.ldatarate = 1Gbps


**.client*.numTcpApps = 1 
**.client1*.tcpApp[0].typename = "TCPSessionApp"
**.client2*.tcpApp[0].typename = "TCPSinkApp"
**.client2*.tcpApp[0].localPort = 1000

**.client1*.tcpApp[0].active = true
**.client1*.tcpApp[0].localPort = -1
**.client1*.tcpApp[0].sendBytes = 1000MiB
**.client1*.tcpApp[0].sendScript = ""
**.client1*.tcpApp[0].tClose = 0s
**.client1*.tcpApp[0].connectPort = 1000


**.client11.tcpApp[0].tOpen = 1s
**.client11.tcpApp[0].connectAddress = "client21"
**.client12.tcpApp[0].tOpen = 1s
**.client12.tcpApp[0].connectAddress = "client22"
**.client13.tcpApp[0].tOpen = 1s
**.client13.tcpApp[0].connectAddress = "client23"

**.client1*.tcpApp[0].tSend = 3.0s


**.routerCore*.ppp[*].queueType           = "REDQueueNUM"
**.routerCore*.ppp[*].queue.red.wq        = 1.0
**.routerCore*.ppp[*].queue.red.minths     = "0"
**.routerCore*.ppp[*].queue.red.maxths     = "20"
**.routerCore*.ppp[*].queue.red.maxps      = "1.0"
**.routerCore*.ppp[*].queue.red.pkrates    = "83333.333"
**.routerCore*.ppp[*].queue.red.marks = "1"
**.routerCore*.ppp[*].queueframeCapacity = 500

[Config BitDown4]
network = BitDown4
seed-set=${2}
**.e*.datarate = 1Gbps
**.e*.delay = 330.33us

**.tcp.sackSupport = false
**.tcp.tcpAlgorithmClass = "ECNNUM"

**.client*.tcp.ldatarate = 1Gbps


**.client*.numTcpApps = 1 
**.client1*.tcpApp[0].typename = "TCPSessionApp"
**.client2*.tcpApp[0].typename = "TCPSinkApp"
**.client2*.tcpApp[0].localPort = 1000

**.client1*.tcpApp[0].active = true
**.client1*.tcpApp[0].localPort = -1
**.client1*.tcpApp[0].sendBytes = 1000MiB
**.client1*.tcpApp[0].sendScript = ""
**.client1*.tcpApp[0].tClose = 0s
**.client1*.tcpApp[0].connectPort = 1000


**.client11.tcpApp[0].tOpen = 1s
**.client11.tcpApp[0].connectAddress = "client21"
**.client12.tcpApp[0].tOpen = 1s
**.client12.tcpApp[0].connectAddress = "client22"
**.client13.tcpApp[0].tOpen = 1s
**.client13.tcpApp[0].connectAddress = "client23"
**.client14.tcpApp[0].tOpen = 1s
**.client14.tcpApp[0].connectAddress = "client24"
**.client111.tcpApp[0].tOpen = 1s
**.client111.tcpApp[0].connectAddress = "client211"
**.client112.tcpApp[0].tOpen = 1s
**.client112.tcpApp[0].connectAddress = "client212"

**.client111.tcpApp[0].tSend = 30.0s
**.client112.tcpApp[0].tSend = 30.0s
**.client1*.tcpApp[0].tSend = 3.0s


**.routerCore*.ppp[*].queueType           = "REDQueueNUM"
**.routerCore*.ppp[*].queue.red.wq        = 1.0
**.routerCore*.ppp[*].queue.red.minths     = "0"
**.routerCore*.ppp[*].queue.red.maxths     = "20"
**.routerCore*.ppp[*].queue.red.maxps      = "1.0"
**.routerCore*.ppp[*].queue.red.pkrates    = "83333.333"
**.routerCore*.ppp[*].queue.red.marks = "1"
**.routerCore*.ppp[*].queueframeCapacity = 500


[Config BitDown6]
network = BitDown6
seed-set=${2}
**.e*.datarate = 1Gbps
**.e*.delay = 330.33us

**.tcp.sackSupport = false
**.tcp.tcpAlgorithmClass = "ECNNUM"

**.client*.tcp.ldatarate = 1Gbps


**.client*.numTcpApps = 1 
**.client1*.tcpApp[0].typename = "TCPSessionApp"
**.client2*.tcpApp[0].typename = "TCPSinkApp"
**.client2*.tcpApp[0].localPort = 1000

**.client1*.tcpApp[0].active = true
**.client1*.tcpApp[0].localPort = -1
**.client1*.tcpApp[0].sendBytes = 1000MiB
**.client1*.tcpApp[0].sendScript = ""
**.client1*.tcpApp[0].tClose = 0s
**.client1*.tcpApp[0].connectPort = 1000
**.client1*.tcpApp[0].tOpen = 1s
**.client1*.tcpApp[0].tSend = 3.0s

**.client11.tcpApp[0].connectAddress = "client21"
**.client12.tcpApp[0].connectAddress = "client22"
**.client13.tcpApp[0].connectAddress = "client23"
**.client14.tcpApp[0].connectAddress = "client24"
**.client15.tcpApp[0].connectAddress = "client25"
**.client16.tcpApp[0].connectAddress = "client26"

**.routerCore*.ppp[*].queueType           = "REDQueueNUM"
**.routerCore*.ppp[*].queue.red.wq        = 1.0
**.routerCore*.ppp[*].queue.red.minths     = "2"
**.routerCore*.ppp[*].queue.red.maxths     = "20"
**.routerCore*.ppp[*].queue.red.maxps      = "1.0"
**.routerCore*.ppp[*].queue.red.pkrates    = "83333.333"
**.routerCore*.ppp[*].queue.red.marks = "1"
**.routerCore*.ppp[*].queueframeCapacity = 500


[Config BitDown6308]
network = BitDown308
seed-set=${1,11,111,1111,2,22,222,2222,3,33,333,3333,4,44,444,4444,5,55,555,5555,6,66,666,6666,7,77,777,7777,8,88,888,8888,9,99,999,9999,10,1010,101010,10101010, 0}

**.tcp.sackSupport = false
**.tcp.tcpAlgorithmClass = "ECNNUM"

**.client*.tcp.ldatarate = 1Gbps

**.client*.numTcpApps = 1 
**.client1*.tcpApp[0].typename = "TCPSessionApp"
**.client2*.tcpApp[0].typename = "TCPSinkApp"
**.client2*.tcpApp[0].localPort = 1000

**.client1*.tcpApp[0].active = true
**.client1*.tcpApp[0].localPort = -1
**.client1*.tcpApp[0].sendBytes = 10000MiB
**.client1*.tcpApp[0].sendScript = ""
**.client1*.tcpApp[0].tClose = 0s
**.client1*.tcpApp[0].connectPort = 1000
**.client1*.tcpApp[0].tOpen = 1s

**.client11.tcpApp[0].connectAddress = "client21"
**.client111.tcpApp[0].connectAddress = "client211"
**.client112.tcpApp[0].connectAddress = "client212"
**.client113.tcpApp[0].connectAddress = "client213"
**.client114.tcpApp[0].connectAddress = "client214"
**.client115.tcpApp[0].connectAddress = "client215"
**.client116.tcpApp[0].connectAddress = "client216"
**.client117.tcpApp[0].connectAddress = "client217"
**.client118.tcpApp[0].connectAddress = "client218"
**.client119.tcpApp[0].connectAddress = "client219"
**.client1110.tcpApp[0].connectAddress = "client2110"
**.client1111.tcpApp[0].connectAddress = "client2111"
**.client1112.tcpApp[0].connectAddress = "client2112"
**.client1113.tcpApp[0].connectAddress = "client2113"
**.client1114.tcpApp[0].connectAddress = "client2114"
**.client1115.tcpApp[0].connectAddress = "client2115"
**.client1116.tcpApp[0].connectAddress = "client2116"
**.client1117.tcpApp[0].connectAddress = "client2117"
**.client1118.tcpApp[0].connectAddress = "client2118"
**.client1119.tcpApp[0].connectAddress = "client2119"
**.client1120.tcpApp[0].connectAddress = "client2120"
**.client1121.tcpApp[0].connectAddress = "client2121"
**.client1122.tcpApp[0].connectAddress = "client2122"
**.client1123.tcpApp[0].connectAddress = "client2123"
**.client1124.tcpApp[0].connectAddress = "client2124"
**.client1125.tcpApp[0].connectAddress = "client2125"
**.client1126.tcpApp[0].connectAddress = "client2126"
**.client1127.tcpApp[0].connectAddress = "client2127"
**.client1128.tcpApp[0].connectAddress = "client2128"
**.client1129.tcpApp[0].connectAddress = "client2129"

**.client11.tcpApp[0].tSend = uniform(3.0s, 3.001s)
**.client111.tcpApp[0].tSend = uniform(3.0s, 3.001s)
**.client112.tcpApp[0].tSend = uniform(3.0s, 3.001s)
**.client113.tcpApp[0].tSend = uniform(3.0s, 3.001s)
**.client114.tcpApp[0].tSend = uniform(3.0s, 3.001s)
**.client115.tcpApp[0].tSend = uniform(3.0s, 3.001s)
**.client116.tcpApp[0].tSend = uniform(3.0s, 3.001s)
**.client117.tcpApp[0].tSend = uniform(3.0s, 3.001s)
**.client118.tcpApp[0].tSend = uniform(3.0s, 3.001s)
**.client119.tcpApp[0].tSend = uniform(3.0s, 3.001s)

**.client12.tcpApp[0].connectAddress = "client22"
**.client121.tcpApp[0].connectAddress = "client221"
**.client122.tcpApp[0].connectAddress = "client222"
**.client123.tcpApp[0].connectAddress = "client223"
**.client124.tcpApp[0].connectAddress = "client224"
**.client125.tcpApp[0].connectAddress = "client225"
**.client126.tcpApp[0].connectAddress = "client226"
**.client127.tcpApp[0].connectAddress = "client227"

**.client12.tcpApp[0].tSend = uniform(3.0s, 3.001s)
**.client121.tcpApp[0].tSend = uniform(3.0s, 3.001s)
**.client122.tcpApp[0].tSend = uniform(3.0s, 3.001s)
**.client123.tcpApp[0].tSend = uniform(3.0s, 3.001s)
**.client124.tcpApp[0].tSend = uniform(3.0s, 3.001s)
**.client125.tcpApp[0].tSend = uniform(3.0s, 3.001s)
**.client126.tcpApp[0].tSend = uniform(3.0s, 3.001s)
**.client127.tcpApp[0].tSend = uniform(3.0s, 3.001s)


**.client13.tcpApp[0].connectAddress = "client23"
**.client131.tcpApp[0].connectAddress = "client231"
**.client132.tcpApp[0].connectAddress = "client232"
**.client133.tcpApp[0].connectAddress = "client233"
**.client134.tcpApp[0].connectAddress = "client234"
**.client135.tcpApp[0].connectAddress = "client235"
**.client136.tcpApp[0].connectAddress = "client236"
**.client137.tcpApp[0].connectAddress = "client237"

**.client13.tcpApp[0].tSend = uniform(3.0s, 3.001s)
**.client131.tcpApp[0].tSend = uniform(3.0s, 3.001s)
**.client132.tcpApp[0].tSend = uniform(3.0s, 3.001s)
**.client133.tcpApp[0].tSend = uniform(3.0s, 3.001s)
**.client134.tcpApp[0].tSend = uniform(3.0s, 3.001s)
**.client135.tcpApp[0].tSend = uniform(3.0s, 3.001s)
**.client136.tcpApp[0].tSend = uniform(3.0s, 3.001s)
**.client137.tcpApp[0].tSend = uniform(3.0s, 3.001s)

**.client14.tcpApp[0].connectAddress = "client24"
**.client141.tcpApp[0].connectAddress = "client241"
**.client142.tcpApp[0].connectAddress = "client242"
**.client143.tcpApp[0].connectAddress = "client243"
**.client144.tcpApp[0].connectAddress = "client244"
**.client145.tcpApp[0].connectAddress = "client245"
**.client146.tcpApp[0].connectAddress = "client246"
**.client147.tcpApp[0].connectAddress = "client247"

**.client14.tcpApp[0].tSend = uniform(3.0s, 3.001s)
**.client141.tcpApp[0].tSend = uniform(3.0s, 3.001s)
**.client142.tcpApp[0].tSend = uniform(3.0s, 3.001s)
**.client143.tcpApp[0].tSend = uniform(3.0s, 3.001s)
**.client144.tcpApp[0].tSend = uniform(3.0s, 3.001s)
**.client145.tcpApp[0].tSend = uniform(3.0s, 3.001s)
**.client146.tcpApp[0].tSend = uniform(3.0s, 3.001s)
**.client147.tcpApp[0].tSend = uniform(3.0s, 3.001s)

**.client15.tcpApp[0].connectAddress = "client25"
**.client151.tcpApp[0].connectAddress = "client251"
**.client152.tcpApp[0].connectAddress = "client252"
**.client153.tcpApp[0].connectAddress = "client253"
**.client154.tcpApp[0].connectAddress = "client254"
**.client155.tcpApp[0].connectAddress = "client255"
**.client156.tcpApp[0].connectAddress = "client256"
**.client157.tcpApp[0].connectAddress = "client257"

**.client15.tcpApp[0].tSend = uniform(3.0s, 3.001s)
**.client151.tcpApp[0].tSend = uniform(3.0s, 3.001s)
**.client152.tcpApp[0].tSend = uniform(3.0s, 3.001s)
**.client153.tcpApp[0].tSend = uniform(3.0s, 3.001s)
**.client154.tcpApp[0].tSend = uniform(3.0s, 3.001s)
**.client155.tcpApp[0].tSend = uniform(3.0s, 3.001s)
**.client156.tcpApp[0].tSend = uniform(3.0s, 3.001s)
**.client157.tcpApp[0].tSend = uniform(3.0s, 3.001s)

**.client16.tcpApp[0].connectAddress = "client26"
**.client161.tcpApp[0].connectAddress = "client261"
**.client162.tcpApp[0].connectAddress = "client262"
**.client163.tcpApp[0].connectAddress = "client263"
**.client164.tcpApp[0].connectAddress = "client264"
**.client165.tcpApp[0].connectAddress = "client265"
**.client166.tcpApp[0].connectAddress = "client266"
**.client167.tcpApp[0].connectAddress = "client267"

**.client16.tcpApp[0].tSend = uniform(3.0s, 3.001s)
**.client161.tcpApp[0].tSend = uniform(3.0s, 3.001s)
**.client162.tcpApp[0].tSend = uniform(3.0s, 3.001s)
**.client163.tcpApp[0].tSend = uniform(3.0s, 3.001s)
**.client164.tcpApp[0].tSend = uniform(3.0s, 3.001s)
**.client165.tcpApp[0].tSend = uniform(3.0s, 3.001s)
**.client166.tcpApp[0].tSend = uniform(3.0s, 3.001s)
**.client167.tcpApp[0].tSend = uniform(3.0s, 3.001s)


**.client1*.tcpApp[0].tSend = 13.0s



**.routerCore*.ppp[*].queueType           = "REDQueueNUM"
**.routerCore*.ppp[*].queue.red.wq        = 0.5
**.routerCore*.ppp[*].queue.red.minths     = "0"
**.routerCore*.ppp[*].queue.red.maxths     = "60"
**.routerCore*.ppp[*].queue.red.maxps      = "1.0"
**.routerCore*.ppp[*].queue.red.pkrates    = "83333.333"
**.routerCore*.ppp[*].queue.red.marks = "1"
**.routerCore*.ppp[*].queueframeCapacity = 500

[Config BitDown6308SRun]
network = BitDown308
seed-set=${10,110,1110,11110,20,220,2220,22220,30,330,3330,33330,40,440,4440,44440,50,550,5550,55550,60,660,6660,66660,70,770,7770,77770,80,880,8880,88880,9,99,999,9999,10,1010,101010,10101010, 0}

**.tcp.sackSupport = false
**.tcp.tcpAlgorithmClass = "ECNNUM"

**.client*.tcp.ldatarate = 1Gbps

**.client*.numTcpApps = 1 
**.client1*.tcpApp[0].typename = "TCPSessionApp"
**.client2*.tcpApp[0].typename = "TCPSinkApp"
**.client2*.tcpApp[0].localPort = 1000

**.client1*.tcpApp[0].active = true
**.client1*.tcpApp[0].localPort = -1
**.client1*.tcpApp[0].sendBytes = 10000MiB
**.client1*.tcpApp[0].sendScript = ""
**.client1*.tcpApp[0].tClose = 0s
**.client1*.tcpApp[0].connectPort = 1000
**.client1*.tcpApp[0].tOpen = 1s

**.client11.tcpApp[0].connectAddress = "client21"
**.client111.tcpApp[0].connectAddress = "client211"
**.client112.tcpApp[0].connectAddress = "client212"
**.client113.tcpApp[0].connectAddress = "client213"
**.client114.tcpApp[0].connectAddress = "client214"
**.client115.tcpApp[0].connectAddress = "client215"
**.client116.tcpApp[0].connectAddress = "client216"
**.client117.tcpApp[0].connectAddress = "client217"
**.client118.tcpApp[0].connectAddress = "client218"
**.client119.tcpApp[0].connectAddress = "client219"
**.client1110.tcpApp[0].connectAddress = "client2110"
**.client1111.tcpApp[0].connectAddress = "client2111"
**.client1112.tcpApp[0].connectAddress = "client2112"
**.client1113.tcpApp[0].connectAddress = "client2113"
**.client1114.tcpApp[0].connectAddress = "client2114"
**.client1115.tcpApp[0].connectAddress = "client2115"
**.client1116.tcpApp[0].connectAddress = "client2116"
**.client1117.tcpApp[0].connectAddress = "client2117"
**.client1118.tcpApp[0].connectAddress = "client2118"
**.client1119.tcpApp[0].connectAddress = "client2119"
**.client1120.tcpApp[0].connectAddress = "client2120"
**.client1121.tcpApp[0].connectAddress = "client2121"
**.client1122.tcpApp[0].connectAddress = "client2122"
**.client1123.tcpApp[0].connectAddress = "client2123"
**.client1124.tcpApp[0].connectAddress = "client2124"
**.client1125.tcpApp[0].connectAddress = "client2125"
**.client1126.tcpApp[0].connectAddress = "client2126"
**.client1127.tcpApp[0].connectAddress = "client2127"
**.client1128.tcpApp[0].connectAddress = "client2128"
**.client1129.tcpApp[0].connectAddress = "client2129"

**.client11.tcpApp[0].tSend = uniform(3.0s, 3.001s)
**.client111.tcpApp[0].tSend = uniform(3.0s, 3.001s)
**.client112.tcpApp[0].tSend = uniform(3.0s, 3.001s)
**.client113.tcpApp[0].tSend = uniform(3.0s, 3.001s)
**.client114.tcpApp[0].tSend = uniform(3.0s, 3.001s)
**.client115.tcpApp[0].tSend = uniform(3.0s, 3.001s)
**.client116.tcpApp[0].tSend = uniform(3.0s, 3.001s)
**.client117.tcpApp[0].tSend = uniform(3.0s, 3.001s)
**.client118.tcpApp[0].tSend = uniform(3.0s, 3.001s)
**.client119.tcpApp[0].tSend = uniform(3.0s, 3.001s)
**.client1110.tcpApp[0].tSend = uniform(3.0s, 3.001s)
**.client1111.tcpApp[0].tSend = uniform(3.0s, 3.001s)
**.client1112.tcpApp[0].tSend = uniform(3.0s, 3.001s)
**.client1113.tcpApp[0].tSend = uniform(3.0s, 3.001s)
**.client1114.tcpApp[0].tSend = uniform(3.0s, 3.001s)
**.client1115.tcpApp[0].tSend = uniform(3.0s, 3.001s)
**.client1116.tcpApp[0].tSend = uniform(3.0s, 3.001s)
**.client1117.tcpApp[0].tSend = uniform(3.0s, 3.001s)
**.client1118.tcpApp[0].tSend = uniform(3.0s, 3.001s)
**.client1119.tcpApp[0].tSend = uniform(3.0s, 3.001s)
**.client1120.tcpApp[0].tSend = uniform(3.0s, 3.001s)
**.client1121.tcpApp[0].tSend = uniform(3.0s, 3.001s)
**.client1122.tcpApp[0].tSend = uniform(3.0s, 3.001s)
**.client1123.tcpApp[0].tSend = uniform(3.0s, 3.001s)
**.client1124.tcpApp[0].tSend = uniform(3.0s, 3.001s)
**.client1125.tcpApp[0].tSend = uniform(3.0s, 3.001s)
**.client1126.tcpApp[0].tSend = uniform(3.0s, 3.001s)
**.client1127.tcpApp[0].tSend = uniform(3.0s, 3.001s)
**.client1128.tcpApp[0].tSend = uniform(3.0s, 3.001s)
**.client1129.tcpApp[0].tSend = uniform(3.0s, 3.001s)

**.client12.tcpApp[0].connectAddress = "client22"
**.client121.tcpApp[0].connectAddress = "client221"
**.client122.tcpApp[0].connectAddress = "client222"
**.client123.tcpApp[0].connectAddress = "client223"
**.client124.tcpApp[0].connectAddress = "client224"
**.client125.tcpApp[0].connectAddress = "client225"
**.client126.tcpApp[0].connectAddress = "client226"
**.client127.tcpApp[0].connectAddress = "client227"

**.client12.tcpApp[0].tSend = uniform(3.0s, 3.001s)
**.client121.tcpApp[0].tSend = uniform(3.0s, 3.001s)
**.client122.tcpApp[0].tSend = uniform(3.0s, 3.001s)
**.client123.tcpApp[0].tSend = uniform(3.0s, 3.001s)
**.client124.tcpApp[0].tSend = uniform(3.0s, 3.001s)
**.client125.tcpApp[0].tSend = uniform(3.0s, 3.001s)
**.client126.tcpApp[0].tSend = uniform(3.0s, 3.001s)
**.client127.tcpApp[0].tSend = uniform(3.0s, 3.001s)


**.client13.tcpApp[0].connectAddress = "client23"
**.client131.tcpApp[0].connectAddress = "client231"
**.client132.tcpApp[0].connectAddress = "client232"
**.client133.tcpApp[0].connectAddress = "client233"
**.client134.tcpApp[0].connectAddress = "client234"
**.client135.tcpApp[0].connectAddress = "client235"
**.client136.tcpApp[0].connectAddress = "client236"
**.client137.tcpApp[0].connectAddress = "client237"

**.client13.tcpApp[0].tSend = uniform(3.0s, 3.001s)
**.client131.tcpApp[0].tSend = uniform(3.0s, 3.001s)
**.client132.tcpApp[0].tSend = uniform(3.0s, 3.001s)
**.client133.tcpApp[0].tSend = uniform(3.0s, 3.001s)
**.client134.tcpApp[0].tSend = uniform(3.0s, 3.001s)
**.client135.tcpApp[0].tSend = uniform(3.0s, 3.001s)
**.client136.tcpApp[0].tSend = uniform(3.0s, 3.001s)
**.client137.tcpApp[0].tSend = uniform(3.0s, 3.001s)

**.client14.tcpApp[0].connectAddress = "client24"
**.client141.tcpApp[0].connectAddress = "client241"
**.client142.tcpApp[0].connectAddress = "client242"
**.client143.tcpApp[0].connectAddress = "client243"
**.client144.tcpApp[0].connectAddress = "client244"
**.client145.tcpApp[0].connectAddress = "client245"
**.client146.tcpApp[0].connectAddress = "client246"
**.client147.tcpApp[0].connectAddress = "client247"

**.client14.tcpApp[0].tSend = uniform(3.0s, 3.001s)
**.client141.tcpApp[0].tSend = uniform(3.0s, 3.001s)
**.client142.tcpApp[0].tSend = uniform(3.0s, 3.001s)
**.client143.tcpApp[0].tSend = uniform(3.0s, 3.001s)
**.client144.tcpApp[0].tSend = uniform(3.0s, 3.001s)
**.client145.tcpApp[0].tSend = uniform(3.0s, 3.001s)
**.client146.tcpApp[0].tSend = uniform(3.0s, 3.001s)
**.client147.tcpApp[0].tSend = uniform(3.0s, 3.001s)

**.client15.tcpApp[0].connectAddress = "client25"
**.client151.tcpApp[0].connectAddress = "client251"
**.client152.tcpApp[0].connectAddress = "client252"
**.client153.tcpApp[0].connectAddress = "client253"
**.client154.tcpApp[0].connectAddress = "client254"
**.client155.tcpApp[0].connectAddress = "client255"
**.client156.tcpApp[0].connectAddress = "client256"
**.client157.tcpApp[0].connectAddress = "client257"

**.client15.tcpApp[0].tSend = uniform(3.0s, 3.001s)
**.client151.tcpApp[0].tSend = uniform(3.0s, 3.001s)
**.client152.tcpApp[0].tSend = uniform(3.0s, 3.001s)
**.client153.tcpApp[0].tSend = uniform(3.0s, 3.001s)
**.client154.tcpApp[0].tSend = uniform(3.0s, 3.001s)
**.client155.tcpApp[0].tSend = uniform(3.0s, 3.001s)
**.client156.tcpApp[0].tSend = uniform(3.0s, 3.001s)
**.client157.tcpApp[0].tSend = uniform(3.0s, 3.001s)

**.client16.tcpApp[0].connectAddress = "client26"
**.client161.tcpApp[0].connectAddress = "client261"
**.client162.tcpApp[0].connectAddress = "client262"
**.client163.tcpApp[0].connectAddress = "client263"
**.client164.tcpApp[0].connectAddress = "client264"
**.client165.tcpApp[0].connectAddress = "client265"
**.client166.tcpApp[0].connectAddress = "client266"
**.client167.tcpApp[0].connectAddress = "client267"

**.client16.tcpApp[0].tSend = uniform(3.0s, 3.001s)
**.client161.tcpApp[0].tSend = uniform(3.0s, 3.001s)
**.client162.tcpApp[0].tSend = uniform(3.0s, 3.001s)
**.client163.tcpApp[0].tSend = uniform(3.0s, 3.001s)
**.client164.tcpApp[0].tSend = uniform(3.0s, 3.001s)
**.client165.tcpApp[0].tSend = uniform(3.0s, 3.001s)
**.client166.tcpApp[0].tSend = uniform(3.0s, 3.001s)
**.client167.tcpApp[0].tSend = uniform(3.0s, 3.001s)


**.client1*.tcpApp[0].tSend = 13.0s



**.routerCore*.ppp[*].queueType           = "REDQueueNUM"
**.routerCore*.ppp[*].queue.red.wq        = 0.5
**.routerCore*.ppp[*].queue.red.minths     = "0"
**.routerCore*.ppp[*].queue.red.maxths     = "60"
**.routerCore*.ppp[*].queue.red.maxps      = "1.0"
**.routerCore*.ppp[*].queue.red.pkrates    = "83333.333"
**.routerCore*.ppp[*].queue.red.marks = "1"
**.routerCore*.ppp[*].queueframeCapacity = 500

[Config BitDown6308Inst]
network = BitDown308
seed-set=${102,103,104,105,106,107,108, 250}

**.tcp.sackSupport = false
**.tcp.tcpAlgorithmClass = "ECNNUM"

**.client*.tcp.ldatarate = 1Gbps

**.client*.numTcpApps = 1 
**.client1*.tcpApp[0].typename = "TCPSessionApp"
**.client2*.tcpApp[0].typename = "TCPSinkApp"
**.client2*.tcpApp[0].localPort = 1000

**.client1*.tcpApp[0].active = true
**.client1*.tcpApp[0].localPort = -1
**.client1*.tcpApp[0].sendBytes = 10000MiB
**.client1*.tcpApp[0].sendScript = ""
**.client1*.tcpApp[0].tClose = 0s
**.client1*.tcpApp[0].connectPort = 1000
**.client1*.tcpApp[0].tOpen = 1s

**.client11.tcpApp[0].connectAddress = "client21"
**.client111.tcpApp[0].connectAddress = "client211"
**.client112.tcpApp[0].connectAddress = "client212"
**.client113.tcpApp[0].connectAddress = "client213"
**.client114.tcpApp[0].connectAddress = "client214"
**.client115.tcpApp[0].connectAddress = "client215"
**.client116.tcpApp[0].connectAddress = "client216"
**.client117.tcpApp[0].connectAddress = "client217"
**.client118.tcpApp[0].connectAddress = "client218"
**.client119.tcpApp[0].connectAddress = "client219"
**.client1110.tcpApp[0].connectAddress = "client2110"
**.client1111.tcpApp[0].connectAddress = "client2111"
**.client1112.tcpApp[0].connectAddress = "client2112"
**.client1113.tcpApp[0].connectAddress = "client2113"
**.client1114.tcpApp[0].connectAddress = "client2114"
**.client1115.tcpApp[0].connectAddress = "client2115"
**.client1116.tcpApp[0].connectAddress = "client2116"
**.client1117.tcpApp[0].connectAddress = "client2117"
**.client1118.tcpApp[0].connectAddress = "client2118"
**.client1119.tcpApp[0].connectAddress = "client2119"
**.client1120.tcpApp[0].connectAddress = "client2120"
**.client1121.tcpApp[0].connectAddress = "client2121"
**.client1122.tcpApp[0].connectAddress = "client2122"
**.client1123.tcpApp[0].connectAddress = "client2123"
**.client1124.tcpApp[0].connectAddress = "client2124"
**.client1125.tcpApp[0].connectAddress = "client2125"
**.client1126.tcpApp[0].connectAddress = "client2126"
**.client1127.tcpApp[0].connectAddress = "client2127"
**.client1128.tcpApp[0].connectAddress = "client2128"
**.client1129.tcpApp[0].connectAddress = "client2129"



**.client11.tcpApp[0].tSend = uniform(3.0s, 3.001s)
**.client111.tcpApp[0].tSend = uniform(3.0s, 3.001s)
**.client112.tcpApp[0].tSend = uniform(3.0s, 3.001s)
**.client113.tcpApp[0].tSend = uniform(3.0s, 3.001s)
**.client114.tcpApp[0].tSend = uniform(3.0s, 3.001s)