[General]

network = DCTCPIncast

parallel-simulation = false
warnings = true
sim-time-limit = 62.0s

cmdenv-module-messages = true # for normal (non-express) mode only
cmdenv-event-banners = true   # for normal (non-express) mode only

tkenv-plugin-path = ../../../etc/plugins

**.e*.datarate = 10Mbps
**.e*.delay = 12ms

#
# Network specific settings
#

# set inet_addr, Mask, MTU ( = 1500), default route (=router)
#**.client.routingFile = "client.mrt"
#**.router.routingFile = "router.mrt"
#**.server.routingFile = "server.mrt"

# ip settings
**.ip.procDelay = 0s
**.IPForward = false

# hookType settings
**.ppp[*].numOutputHooks = 1
**.ppp[*].outputHook[0].typename = "OrdinalBasedDropper" # Nop | ThruputMeter | OrdinalBasedDropper | OrdinalBasedDuplicator

# ARP settings
**.arp.retryTimeout = 1s
**.arp.retryCount = 3
**.arp.cacheTimeout = 100s


**.tcp.delayedAcksEnabled = false                    # delayed ACK algorithm (RFC 1122) enabled/disabled
**.tcp.nagleEnabled = false                           # Nagle's algorithm (RFC 896) enabled/disabled
**.tcp.limitedTransmitEnabled = false                # Limited Transmit algorithm (RFC 3042) enabled/disabled (can be used for TCPReno/TCPTahoe/TCPNewReno/TCPNoCongestionControl)
**.tcp.increasedIWEnabled = false                    # Increased Initial Window (RFC 3390) enabled/disabled
**.tcp.sackSupport = true                            # Selective Acknowledgment (RFC 2018, 2883, 3517) support (header option) (SACK will be enabled for a connection if both endpoints support it)
**.tcp.windowScalingSupport = true                  # Window Scale (RFC 1323) support (header option) (WS will be enabled for a connection if both endpoints support it)
**.tcp.timestampSupport = false                      # Timestamps (RFC 1323) support (header option) (TS will be enabled for a connection if both endpoints support it)
**.tcp.tcpAlgorithmClass = "TCPReno"                 # TCPReno/TCPTahoe/TCPNewReno/TCPNoCongestionControl/DumbTCP
**.tcp.advertisedWindow = 350000
**.tcp.recordStats = true
**.tcp.mss = 1460

#**.tcp2.delayedAcksEnabled = false                    # delayed ACK algorithm (RFC 1122) enabled/disabled
#**.tcp2.nagleEnabled = false                           # Nagle's algorithm (RFC 896) enabled/disabled
#**.tcp2.limitedTransmitEnabled = false                # Limited Transmit algorithm (RFC 3042) enabled/disabled (can be used for TCPReno/TCPTahoe/TCPNewReno/TCPNoCongestionControl)
#**.tcp2.increasedIWEnabled = false                    # Increased Initial Window (RFC 3390) enabled/disabled
#**.tcp2.sackSupport = true                            # Selective Acknowledgment (RFC 2018, 2883, 3517) support (header option) (SACK will be enabled for a connection if both endpoints support it)
#**.tcp2.windowScalingSupport = false                  # Window Scale (RFC 1323) support (header option) (WS will be enabled for a connection if both endpoints support it)
#**.tcp2.timestampSupport = false                      # Timestamps (RFC 1323) support (header option) (TS will be enabled for a connection if both endpoints support it)
#**.tcp2.tcpAlgorithmClass = "TCPReno"                 # TCPReno/TCPTahoe/TCPNewReno/TCPNoCongestionControl/DumbTCP
#**.tcp2.advertisedWindow = 65535
#**.tcp2.recordStats = true

DCTCPIncast.ldelay = 12ms
#tcpValidation.delay = 25ms# ${1.25ms, 6.25ms, 12.5ms, 18.75ms, 25ms, 31.25ms, 37.5ms}
#**.ethg$o[*].channel.delay = 0.1s
#**.ppp[*].channel.delay = 0.1s

## tcp apps
**.client21.numTcpApps = 20
**.client21.tcpApp[*].typename = "TCPSinkApp"
**.client21.tcpApp[0].localPort = 1000
**.client21.tcpApp[1].localPort = 1001
**.client21.tcpApp[2].localPort = 1002
**.client21.tcpApp[3].localPort = 1003
**.client21.tcpApp[4].localPort = 1004
**.client21.tcpApp[5].localPort = 1005
**.client21.tcpApp[6].localPort = 1006
**.client21.tcpApp[7].localPort = 1007
**.client21.tcpApp[8].localPort = 1008
**.client21.tcpApp[9].localPort = 1009
**.client21.tcpApp[10].localPort = 10010
**.client21.tcpApp[11].localPort = 10011
**.client21.tcpApp[12].localPort = 10012
**.client21.tcpApp[13].localPort = 10013
**.client21.tcpApp[14].localPort = 10014
**.client21.tcpApp[15].localPort = 10015
**.client21.tcpApp[16].localPort = 10016
**.client21.tcpApp[17].localPort = 10017
**.client21.tcpApp[18].localPort = 10018
**.client21.tcpApp[19].localPort = 10019
#**.tcp.windowScalingSupport = true
#**.tcp.advertisedWindow = 350000
**.client1*.numTcpApps = 1
**.client1*.tcpApp[*].typename = "TCPSessionApp"
**.client1*.tcpApp[0].active = true
**.client1*.tcpApp[0].localPort = -1
**.client1*.tcpApp[0].connectAddress = "client21"
**.client1*.tcpApp[0].tOpen = 1s
**.client1*.tcpApp[0].sendBytes = 100MiB
**.client1*.tcpApp[0].sendScript = ""
**.client1*.tcpApp[0].tClose = 0s


**.client11.tcpApp[0].connectPort = 1000
**.client12.tcpApp[0].connectPort = 1001
**.client13.tcpApp[0].connectPort = 1002
**.client14.tcpApp[0].connectPort = 1003
**.client15.tcpApp[0].connectPort = 1004
**.client16.tcpApp[0].connectPort = 1005
**.client17.tcpApp[0].connectPort = 1006
**.client18.tcpApp[0].connectPort = 1007
**.client19.tcpApp[0].connectPort = 1008
**.client110.tcpApp[0].connectPort = 1009
**.client111.tcpApp[0].connectPort = 10010
**.client112.tcpApp[0].connectPort = 10011
**.client113.tcpApp[0].connectPort = 10012
**.client114.tcpApp[0].connectPort = 10013
**.client115.tcpApp[0].connectPort = 10014
**.client116.tcpApp[0].connectPort = 10015
**.client117.tcpApp[0].connectPort = 10016
**.client118.tcpApp[0].connectPort = 10017
**.client119.tcpApp[0].connectPort = 10018
**.client120.tcpApp[0].connectPort = 10019

#**.routerCore.ppp[*].queueType = "DropTailQueue" # in routers
#**.routerCore.ppp[*].queue.frameCapacity = 34

#**.ppp[*].queueType = "REDDropper"
**.routerCore.ppp[20].queueType           = "inet.examples.netperfmeter.REDQueue"
**.routerCore.ppp[20].queue.red.wq        = 1.0
**.routerCore.ppp[20].queue.red.minths     = "0"
**.routerCore.ppp[20].queue.red.maxths     = "6"
**.routerCore.ppp[20].queue.red.maxps      = "0.0"
**.routerCore.ppp[20].queue.red.pkrates    = "1.0"
**.routerCore.ppp[20].queue.red.marks = "1"
**.routerCore.ppp[20].queueframeCapacity = 500
#**.routerCore.ppp[*].queueType = "REDDropper" # in routers
#**.routerCore.ppp[*].queue.frameCapacity = 65
# NIC settings
**.ppp[*].queueType = "DropTailQueue"
**.ppp[*].queue.frameCapacity = 500    # packets



############################################################## DCTCP-Incast
[Config DCTCP-Incast-2]
**.client11.tcpApp[0].tSend = 3s
**.client12.tcpApp[0].tSend = 3s
**.client13.tcpApp[0].tSend = 62s
**.client14.tcpApp[0].tSend = 62s
**.client15.tcpApp[0].tSend = 62s
**.client16.tcpApp[0].tSend = 62s
**.client17.tcpApp[0].tSend = 62s
**.client18.tcpApp[0].tSend = 62s
**.client19.tcpApp[0].tSend = 62s
**.client110.tcpApp[0].tSend = 62s
**.client111.tcpApp[0].tSend = 62s
**.client112.tcpApp[0].tSend = 62s
**.client113.tcpApp[0].tSend = 62s
**.client114.tcpApp[0].tSend = 62s
**.client115.tcpApp[0].tSend = 62s
**.client116.tcpApp[0].tSend = 62s
**.client117.tcpApp[0].tSend = 62s
**.client118.tcpApp[0].tSend = 62s
**.client119.tcpApp[0].tSend = 62s
**.client120.tcpApp[0].tSend = 62s

[Config DCTCP-Incast-1LG]
**.client11.tcpApp[0].tSend = 3s
**.client12.tcpApp[0].tSend = 62s
**.client13.tcpApp[0].tSend = 62s
**.client14.tcpApp[0].tSend = 62s
**.client15.tcpApp[0].tSend = 62s
**.client16.tcpApp[0].tSend = 62s
**.client17.tcpApp[0].tSend = 62s
**.client18.tcpApp[0].tSend = 62s
**.client19.tcpApp[0].tSend = 62s
**.client110.tcpApp[0].tSend = 62s
**.client111.tcpApp[0].tSend = 62s
**.client112.tcpApp[0].tSend = 62s
**.client113.tcpApp[0].tSend = 62s
**.client114.tcpApp[0].tSend = 62s
**.client115.tcpApp[0].tSend = 62s
**.client116.tcpApp[0].tSend = 62s
**.client117.tcpApp[0].tSend = 62s
**.client118.tcpApp[0].tSend = 62s
**.client119.tcpApp[0].tSend = 62s
**.client120.tcpApp[0].tSend = 62s

**.routerCore.ppp[20].queue.red.maxths     = "1"

[Config DCTCP-Incast-1LGHigh]
**.e*.datarate = 40Mbps
**.client11.tcpApp[0].tSend = 3s
**.client12.tcpApp[0].tSend = 62s
**.client13.tcpApp[0].tSend = 62s
**.client14.tcpApp[0].tSend = 62s
**.client15.tcpApp[0].tSend = 62s
**.client16.tcpApp[0].tSend = 62s
**.client17.tcpApp[0].tSend = 62s
**.client18.tcpApp[0].tSend = 62s
**.client19.tcpApp[0].tSend = 62s
**.client110.tcpApp[0].tSend = 62s
**.client111.tcpApp[0].tSend = 62s
**.client112.tcpApp[0].tSend = 62s
**.client113.tcpApp[0].tSend = 62s
**.client114.tcpApp[0].tSend = 62s
**.client115.tcpApp[0].tSend = 62s
**.client116.tcpApp[0].tSend = 62s
**.client117.tcpApp[0].tSend = 62s
**.client118.tcpApp[0].tSend = 62s
**.client119.tcpApp[0].tSend = 62s
**.client120.tcpApp[0].tSend = 62s

**.routerCore.ppp[20].queue.red.maxths     = "1"

[Config DCTCP-Incast-5LG]
**.client11.tcpApp[0].tSend = 3s
**.client12.tcpApp[0].tSend = 3s
**.client13.tcpApp[0].tSend = 3s
**.client14.tcpApp[0].tSend = 3s
**.client15.tcpApp[0].tSend = 3s
**.client16.tcpApp[0].tSend = 62s
**.client17.tcpApp[0].tSend = 62s
**.client18.tcpApp[0].tSend = 62s
**.client19.tcpApp[0].tSend = 62s
**.client110.tcpApp[0].tSend = 62s
**.client111.tcpApp[0].tSend = 62s
**.client112.tcpApp[0].tSend = 62s
**.client113.tcpApp[0].tSend = 62s
**.client114.tcpApp[0].tSend = 62s
**.client115.tcpApp[0].tSend = 62s
**.client116.tcpApp[0].tSend = 62s
**.client117.tcpApp[0].tSend = 62s
**.client118.tcpApp[0].tSend = 62s
**.client119.tcpApp[0].tSend = 62s
**.client120.tcpApp[0].tSend = 62s

**.routerCore.ppp[20].queue.red.maxths     = "1"

[Config DCTCP-Incast-10LG]
**.client11.tcpApp[0].tSend = 3s
**.client12.tcpApp[0].tSend = 3s
**.client13.tcpApp[0].tSend = 3s
**.client14.tcpApp[0].tSend = 3s
**.client15.tcpApp[0].tSend = 3s
**.client16.tcpApp[0].tSend = 3s
**.client17.tcpApp[0].tSend = 3s
**.client18.tcpApp[0].tSend = 3s
**.client19.tcpApp[0].tSend = 3s
**.client110.tcpApp[0].tSend = 9.9s
**.client111.tcpApp[0].tSend = 62s
**.client112.tcpApp[0].tSend = 62s
**.client113.tcpApp[0].tSend = 62s
**.client114.tcpApp[0].tSend = 62s
**.client115.tcpApp[0].tSend = 62s
**.client116.tcpApp[0].tSend = 62s
**.client117.tcpApp[0].tSend = 62s
**.client118.tcpApp[0].tSend = 62s
**.client119.tcpApp[0].tSend = 62s
**.client120.tcpApp[0].tSend = 62s

**.routerCore.ppp[20].queue.red.maxths     = "1"

[Config DCTCP-Incast-20LG]
**.client1*.tcpApp[0].tSend = 3s

**.routerCore.ppp[20].queue.red.maxths     = "1"


[Config DCTCP-Incast-5LGHigh]
seed-set=${2}
#**.e*.datarate = 40Mbps
**.e*.datarate = 10Gbps
**.e*.delay = 50us

**.tcp.sackSupport = false
**.tcp.tcpAlgorithmClass = "LGTCP"

**.client11.tcpApp[0].tSend = 3s
**.client12.tcpApp[0].tSend = 3s
**.client13.tcpApp[0].tSend = 3s
**.client14.tcpApp[0].tSend = 3s
**.client15.tcpApp[0].tSend = 3s
**.client16.tcpApp[0].tSend = 62s
**.client17.tcpApp[0].tSend = 62s
**.client18.tcpApp[0].tSend = 62s
**.client19.tcpApp[0].tSend = 62s
**.client110.tcpApp[0].tSend = 62s
**.client111.tcpApp[0].tSend = 62s
**.client112.tcpApp[0].tSend = 62s
**.client113.tcpApp[0].tSend = 62s
**.client114.tcpApp[0].tSend = 62s
**.client115.tcpApp[0].tSend = 62s
**.client116.tcpApp[0].tSend = 62s
**.client117.tcpApp[0].tSend = 62s
**.client118.tcpApp[0].tSend = 62s
**.client119.tcpApp[0].tSend = 62s
**.client120.tcpApp[0].tSend = 62s

#**.routerCore.ppp[20].queue.red.maxths     = "1"

**.routerCore.ppp[20].queueType           = "inet.examples.netperfmeter.REDQueue"
**.routerCore.ppp[20].queue.red.wq        = 1.0
**.routerCore.ppp[20].queue.red.minths     = "0"
**.routerCore.ppp[20].queue.red.maxths     = "1"
**.routerCore.ppp[20].queue.red.maxps      = "1.0"
**.routerCore.ppp[20].queue.red.pkrates    = "1.0"
**.routerCore.ppp[20].queue.red.marks = "1"
**.routerCore.ppp[20].queueframeCapacity = 500


[Config DCTCP-Incast-5DCTCPHigh]
#**.e*.datarate = 40Mbps
**.e*.datarate = 10Gbps
**.e*.delay = 50us

**.tcp.sackSupport = false
**.tcp.tcpAlgorithmClass = "DCTCP"

**.client11.tcpApp[0].tSend = 3s
**.client12.tcpApp[0].tSend = 3s
**.client13.tcpApp[0].tSend = 3s
**.client14.tcpApp[0].tSend = 3s
**.client15.tcpApp[0].tSend = 3s
**.client16.tcpApp[0].tSend = 62s
**.client17.tcpApp[0].tSend = 62s
**.client18.tcpApp[0].tSend = 62s
**.client19.tcpApp[0].tSend = 62s
**.client110.tcpApp[0].tSend = 62s
**.client111.tcpApp[0].tSend = 62s
**.client112.tcpApp[0].tSend = 62s
**.client113.tcpApp[0].tSend = 62s
**.client114.tcpApp[0].tSend = 62s
**.client115.tcpApp[0].tSend = 62s
**.client116.tcpApp[0].tSend = 62s
**.client117.tcpApp[0].tSend = 62s
**.client118.tcpApp[0].tSend = 62s
**.client119.tcpApp[0].tSend = 62s
**.client120.tcpApp[0].tSend = 62s

#**.routerCore.ppp[20].queue.red.maxths     = "1"

**.routerCore.ppp[20].queueType           = "inet.examples.netperfmeter.REDQueue"
**.routerCore.ppp[20].queue.red.wq        = 1.0
**.routerCore.ppp[20].queue.red.minths     = "25"
**.routerCore.ppp[20].queue.red.maxths     = "26"
**.routerCore.ppp[20].queue.red.maxps      = "1.0"
**.routerCore.ppp[20].queue.red.pkrates    = "1.0"
**.routerCore.ppp[20].queue.red.marks = "1"
**.routerCore.ppp[20].queueframeCapacity = 500


[Config DCTCP-Incast-5LGHighPace]
#**.e*.datarate = 40Mbps
**.e*.datarate = 10Gbps
**.e*.delay = 50us

**.tcp.sackSupport = false
**.tcp.tcpAlgorithmClass = "LGTCP"

**.client11.tcpApp[0].tSend = 3s
**.client12.tcpApp[0].tSend = 3s
**.client13.tcpApp[0].tSend = 3s
**.client14.tcpApp[0].tSend = 3s
**.client15.tcpApp[0].tSend = 3s
**.client16.tcpApp[0].tSend = 62s
**.client17.tcpApp[0].tSend = 62s
**.client18.tcpApp[0].tSend = 62s
**.client19.tcpApp[0].tSend = 62s
**.client110.tcpApp[0].tSend = 62s
**.client111.tcpApp[0].tSend = 62s
**.client112.tcpApp[0].tSend = 62s
**.client113.tcpApp[0].tSend = 62s
**.client114.tcpApp[0].tSend = 62s
**.client115.tcpApp[0].tSend = 62s
**.client116.tcpApp[0].tSend = 62s
**.client117.tcpApp[0].tSend = 62s
**.client118.tcpApp[0].tSend = 62s
**.client119.tcpApp[0].tSend = 62s
**.client120.tcpApp[0].tSend = 62s

#**.routerCore.ppp[20].queue.red.maxths     = "1"

**.routerCore.ppp[20].queueType           = "inet.examples.netperfmeter.REDQueue"
**.routerCore.ppp[20].queue.red.wq        = 1.0
**.routerCore.ppp[20].queue.red.minths     = "0"
**.routerCore.ppp[20].queue.red.maxths     = "1"
**.routerCore.ppp[20].queue.red.maxps      = "1.0"
**.routerCore.ppp[20].queue.red.pkrates    = "1.0"
**.routerCore.ppp[20].queue.red.marks = "1"
**.routerCore.ppp[20].queueframeCapacity = 500


[Config DCTCP-Incast-5LGLow]
**.e*.datarate = 10Mbps

**.client11.tcpApp[0].tSend = 3s
**.client12.tcpApp[0].tSend = 3s
**.client13.tcpApp[0].tSend = 3s
**.client14.tcpApp[0].tSend = 3s
**.client15.tcpApp[0].tSend = 3s
**.client16.tcpApp[0].tSend = 62s
**.client17.tcpApp[0].tSend = 62s
**.client18.tcpApp[0].tSend = 62s
**.client19.tcpApp[0].tSend = 62s
**.client110.tcpApp[0].tSend = 62s
**.client111.tcpApp[0].tSend = 62s
**.client112.tcpApp[0].tSend = 62s
**.client113.tcpApp[0].tSend = 62s
**.client114.tcpApp[0].tSend = 62s
**.client115.tcpApp[0].tSend = 62s
**.client116.tcpApp[0].tSend = 62s
**.client117.tcpApp[0].tSend = 62s
**.client118.tcpApp[0].tSend = 62s
**.client119.tcpApp[0].tSend = 62s
**.client120.tcpApp[0].tSend = 62s

#**.routerCore.ppp[20].queue.red.maxths     = "1"

**.routerCore.ppp[20].queueType           = "inet.examples.netperfmeter.REDQueue"
**.routerCore.ppp[20].queue.red.wq        = 1.0
**.routerCore.ppp[20].queue.red.minths     = "0"
**.routerCore.ppp[20].queue.red.maxths     = "5"
**.routerCore.ppp[20].queue.red.maxps      = "1.0"
**.routerCore.ppp[20].queue.red.pkrates    = "1.0"
**.routerCore.ppp[20].queue.red.marks = "1"
**.routerCore.ppp[20].queueframeCapacity = 500


[Config DCTCP-Incast-10LGLow]
**.e*.datarate = 10Mbps

**.client11.tcpApp[0].tSend = 3s
**.client12.tcpApp[0].tSend = 3s
**.client13.tcpApp[0].tSend = 3s
**.client14.tcpApp[0].tSend = 3s
**.client15.tcpApp[0].tSend = 3s
**.client16.tcpApp[0].tSend = 3s
**.client17.tcpApp[0].tSend = 3s
**.client18.tcpApp[0].tSend = 3s
**.client19.tcpApp[0].tSend = 3s
**.client110.tcpApp[0].tSend = 3s
**.client111.tcpApp[0].tSend = 62s
**.client112.tcpApp[0].tSend = 62s
**.client113.tcpApp[0].tSend = 62s
**.client114.tcpApp[0].tSend = 62s
**.client115.tcpApp[0].tSend = 62s
**.client116.tcpApp[0].tSend = 62s
**.client117.tcpApp[0].tSend = 62s
**.client118.tcpApp[0].tSend = 62s
**.client119.tcpApp[0].tSend = 62s
**.client120.tcpApp[0].tSend = 62s

#**.routerCore.ppp[20].queue.red.maxths     = "1"

**.routerCore.ppp[20].queueType           = "inet.examples.netperfmeter.REDQueue"
**.routerCore.ppp[20].queue.red.wq        = 1.0
**.routerCore.ppp[20].queue.red.minths     = "0"
**.routerCore.ppp[20].queue.red.maxths     = "5"
**.routerCore.ppp[20].queue.red.maxps      = "1.0"
**.routerCore.ppp[20].queue.red.pkrates    = "1.0"
**.routerCore.ppp[20].queue.red.marks = "1"
**.routerCore.ppp[20].queueframeCapacity = 500


[Config DCTCP-Incast-10LGHighDumbbell]
network = DCTCPDumbbell
#**.e*.datarate = 40Mbps
**.e*.datarate = 10Gbps
**.e*.delay = 33.3us

**.tcp.sackSupport = false
**.tcp.tcpAlgorithmClass = "LGTCP"


**.routerCore.ppp[10].queueType           = "inet.examples.netperfmeter.REDQueue"
**.routerCore.ppp[10].queue.red.wq        = 1.0
**.routerCore.ppp[10].queue.red.minths     = "0"
**.routerCore.ppp[10].queue.red.maxths     = "1"
**.routerCore.ppp[10].queue.red.maxps      = "1.0"
**.routerCore.ppp[10].queue.red.pkrates    = "1.0"
**.routerCore.ppp[10].queue.red.marks = "1"
**.routerCore.ppp[10].queueframeCapacity = 500

**.client2*.numTcpApps = 1
**.client2*.tcpApp[*].typename = "TCPSinkApp"
**.client2*.tcpApp[0].localPort = 1000

**.client1*.numTcpApps = 1
**.client1*.tcpApp[*].typename = "TCPSessionApp"
**.client1*.tcpApp[0].active = true
**.client1*.tcpApp[0].localPort = -1
**.client1*.tcpApp[0].tOpen = 1s
**.client1*.tcpApp[0].sendBytes = 100MiB
**.client1*.tcpApp[0].sendScript = ""
**.client1*.tcpApp[0].tClose = 0s
**.client1*.tcpApp[0].connectPort = 1000
**.client1*.tcpApp[0].tSend = 3s

**.client11.tcpApp[0].connectAddress = "client21"
**.client12.tcpApp[0].connectAddress = "client22"
**.client13.tcpApp[0].connectAddress = "client23"
**.client14.tcpApp[0].connectAddress = "client24"
**.client15.tcpApp[0].connectAddress = "client25"
**.client16.tcpApp[0].connectAddress = "client26"
**.client17.tcpApp[0].connectAddress = "client27"
**.client18.tcpApp[0].connectAddress = "client28"
**.client19.tcpApp[0].connectAddress = "client29"
**.client110.tcpApp[0].connectAddress = "client210"

[Config DCTCP-Incast-10LG40HighDumbbell]
network = DCTCPDumbbell
#**.e*.datarate = 40Mbps
**.e21.datarate = 40Gbps
**.e*.datarate = 10Gbps
**.e*.delay = 33.3us

**.tcp.sackSupport = false
**.tcp.tcpAlgorithmClass = "LGTCP"


**.routerCore.ppp[10].queueType           = "inet.examples.netperfmeter.REDQueue"
**.routerCore.ppp[10].queue.red.wq        = 1.0
**.routerCore.ppp[10].queue.red.minths     = "0"
**.routerCore.ppp[10].queue.red.maxths     = "1"
**.routerCore.ppp[10].queue.red.maxps      = "1.0"
**.routerCore.ppp[10].queue.red.pkrates    = "1.0"
**.routerCore.ppp[10].queue.red.marks = "1"
**.routerCore.ppp[10].queueframeCapacity = 500

**.client2*.numTcpApps = 1
**.client2*.tcpApp[*].typename = "TCPSinkApp"
**.client2*.tcpApp[0].localPort = 1000

**.client1*.numTcpApps = 1
**.client1*.tcpApp[*].typename = "TCPSessionApp"
**.client1*.tcpApp[0].active = true
**.client1*.tcpApp[0].localPort = -1
**.client1*.tcpApp[0].tOpen = 1s
**.client1*.tcpApp[0].sendBytes = 100MiB
**.client1*.tcpApp[0].sendScript = ""
**.client1*.tcpApp[0].tClose = 0s
**.client1*.tcpApp[0].connectPort = 1000
**.client1*.tcpApp[0].tSend = 3s

**.client11.tcpApp[0].connectAddress = "client21"
**.client12.tcpApp[0].connectAddress = "client22"
**.client13.tcpApp[0].connectAddress = "client23"
**.client14.tcpApp[0].connectAddress = "client24"
**.client15.tcpApp[0].connectAddress = "client25"
**.client16.tcpApp[0].connectAddress = "client26"
**.client17.tcpApp[0].connectAddress = "client27"
**.client18.tcpApp[0].connectAddress = "client28"
**.client19.tcpApp[0].connectAddress = "client29"
**.client110.tcpApp[0].connectAddress = "client210"

[Config DCTCP-Incast-20LGHigh]
#**.e*.datarate = 40Mbps
**.e*.datarate = 10Gbps
**.e*.delay = 50us

**.tcp.sackSupport = false
**.tcp.tcpAlgorithmClass = "LGTCP"

**.client1*.tcpApp[0].tSend = 3s

**.routerCore.ppp[20].queueType           = "inet.examples.netperfmeter.REDQueue"
**.routerCore.ppp[20].queue.red.wq        = 1.0
**.routerCore.ppp[20].queue.red.minths     = "0"
**.routerCore.ppp[20].queue.red.maxths     = "1"
**.routerCore.ppp[20].queue.red.maxps      = "1.0"
**.routerCore.ppp[20].queue.red.pkrates    = "1.0"
**.routerCore.ppp[20].queue.red.marks = "1"
**.routerCore.ppp[20].queueframeCapacity = 500

[Config DCTCP-Incast-20DCTCPHigh]
#**.e*.datarate = 40Mbps
**.e*.datarate = 10Gbps
**.e*.delay = 50us

**.tcp.sackSupport = false
**.tcp.tcpAlgorithmClass = "DCTCP"

**.client1*.tcpApp[0].tSend = 3s

**.routerCore.ppp[20].queueType           = "inet.examples.netperfmeter.REDQueue"
**.routerCore.ppp[20].queue.red.wq        = 1.0
**.routerCore.ppp[20].queue.red.minths     = "28"
**.routerCore.ppp[20].queue.red.maxths     = "29"
**.routerCore.ppp[20].queue.red.maxps      = "1.0"
**.routerCore.ppp[20].queue.red.pkrates    = "1.0"
**.routerCore.ppp[20].queue.red.marks = "1"
**.routerCore.ppp[20].queueframeCapacity = 500

[Config DCTCP-Incast-20LGHighPace]
seed-set=${2}
#**.e*.datarate = 40Mbps
**.e*.datarate = 10Gbps
**.e*.delay = 50us

**.tcp.sackSupport = false
**.tcp.tcpAlgorithmClass = "LGTCP"

**.client1*.tcpApp[0].tSend = 3s

**.routerCore.ppp[20].queueType           = "inet.examples.netperfmeter.REDQueue"
**.routerCore.ppp[20].queue.red.wq        = 1.0
**.routerCore.ppp[20].queue.red.minths     = "0"
**.routerCore.ppp[20].queue.red.maxths     = "1"
**.routerCore.ppp[20].queue.red.maxps      = "1.0"
**.routerCore.ppp[20].queue.red.pkrates    = "1.0"
**.routerCore.ppp[20].queue.red.marks = "1"
**.routerCore.ppp[20].queueframeCapacity = 500

[Config DCTCP-Incast-40LGHigh]
**.e*.datarate = 10Gbps
**.e*.delay = 50us

**.tcp.sackSupport = false
**.tcp.tcpAlgorithmClass = "LGTCP"

**.routerCore.ppp[20].queueType           = "inet.examples.netperfmeter.REDQueue"
**.routerCore.ppp[20].queue.red.wq        = 1.0
**.routerCore.ppp[20].queue.red.minths     = "0"
**.routerCore.ppp[20].queue.red.maxths     = "1"
**.routerCore.ppp[20].queue.red.maxps      = "1.0"
**.routerCore.ppp[20].queue.red.pkrates    = "1.0"
**.routerCore.ppp[20].queue.red.marks = "1"
**.routerCore.ppp[20].queueframeCapacity = 500

**.client21.numTcpApps = 40
**.client21.tcpApp[*].typename = "TCPSinkApp"
**.client21.tcpApp[0].localPort = 1000
**.client21.tcpApp[1].localPort = 1001
**.client21.tcpApp[2].localPort = 1002
**.client21.tcpApp[3].localPort = 1003
**.client21.tcpApp[4].localPort = 1004
**.client21.tcpApp[5].localPort = 1005
**.client21.tcpApp[6].localPort = 1006
**.client21.tcpApp[7].localPort = 1007
**.client21.tcpApp[8].localPort = 1008
**.client21.tcpApp[9].localPort = 1009
**.client21.tcpApp[10].localPort = 10010
**.client21.tcpApp[11].localPort = 10011
**.client21.tcpApp[12].localPort = 10012
**.client21.tcpApp[13].localPort = 10013
**.client21.tcpApp[14].localPort = 10014
**.client21.tcpApp[15].localPort = 10015
**.client21.tcpApp[16].localPort = 10016
**.client21.tcpApp[17].localPort = 10017
**.client21.tcpApp[18].localPort = 10018
**.client21.tcpApp[19].localPort = 10019
**.client21.tcpApp[20].localPort = 10020
**.client21.tcpApp[21].localPort = 10021
**.client21.tcpApp[22].localPort = 10022
**.client21.tcpApp[23].localPort = 10023
**.client21.tcpApp[24].localPort = 10024
**.client21.tcpApp[25].localPort = 10025
**.client21.tcpApp[26].localPort = 10026
**.client21.tcpApp[27].localPort = 10027
**.client21.tcpApp[28].localPort = 10028
**.client21.tcpApp[29].localPort = 10029
**.client21.tcpApp[30].localPort = 10030
**.client21.tcpApp[31].localPort = 10031
**.client21.tcpApp[32].localPort = 10032
**.client21.tcpApp[33].localPort = 10033
**.client21.tcpApp[34].localPort = 10034
**.client21.tcpApp[35].localPort = 10035
**.client21.tcpApp[36].localPort = 10036
**.client21.tcpApp[37].localPort = 10037
**.client21.tcpApp[38].localPort = 10038
**.client21.tcpApp[39].localPort = 10039
#**.tcp.windowScalingSupport = true
#**.tcp.advertisedWindow = 350000
**.client1*.numTcpApps = 2
**.client1*.tcpApp[*].typename = "TCPSessionApp"
**.client1*.tcpApp[*].active = true
**.client1*.tcpApp[*].localPort = -1
**.client1*.tcpApp[*].connectAddress = "client21"
**.client1*.tcpApp[*].tOpen = 1s
**.client1*.tcpApp[*].sendBytes = 100MiB
**.client1*.tcpApp[*].sendScript = ""
**.client1*.tcpApp[*].tClose = 0s
**.client1*.tcpApp[*].tSend = 3s

**.client11.tcpApp[0].connectPort = 1000
**.client12.tcpApp[0].connectPort = 1001
**.client13.tcpApp[0].connectPort = 1002
**.client14.tcpApp[0].connectPort = 1003
**.client15.tcpApp[0].connectPort = 1004
**.client16.tcpApp[0].connectPort = 1005
**.client17.tcpApp[0].connectPort = 1006
**.client18.tcpApp[0].connectPort = 1007
**.client19.tcpApp[0].connectPort = 1008
**.client110.tcpApp[0].connectPort = 1009
**.client111.tcpApp[0].connectPort = 10010
**.client112.tcpApp[0].connectPort = 10011
**.client113.tcpApp[0].connectPort = 10012
**.client114.tcpApp[0].connectPort = 10013
**.client115.tcpApp[0].connectPort = 10014
**.client116.tcpApp[0].connectPort = 10015
**.client117.tcpApp[0].connectPort = 10016
**.client118.tcpApp[0].connectPort = 10017
**.client119.tcpApp[0].connectPort = 10018
**.client120.tcpApp[0].connectPort = 10019

**.client11.tcpApp[1].connectPort = 10020
**.client12.tcpApp[1].connectPort = 10021
**.client13.tcpApp[1].connectPort = 10022
**.client14.tcpApp[1].connectPort = 10023
**.client15.tcpApp[1].connectPort = 10024
**.client16.tcpApp[1].connectPort = 10025
**.client17.tcpApp[1].connectPort = 10026
**.client18.tcpApp[1].connectPort = 10027
**.client19.tcpApp[1].connectPort = 10028
**.client110.tcpApp[1].connectPort = 10029
**.client111.tcpApp[1].connectPort = 10030
**.client112.tcpApp[1].connectPort = 10031
**.client113.tcpApp[1].connectPort = 10032
**.client114.tcpApp[1].connectPort = 10033
**.client115.tcpApp[1].connectPort = 10034
**.client116.tcpApp[1].connectPort = 10035
**.client117.tcpApp[1].connectPort = 10036
**.client118.tcpApp[1].connectPort = 10037
**.client119.tcpApp[1].connectPort = 10038
**.client120.tcpApp[1].connectPort = 10039

[Config DCTCP-Incast-40DCTCPHigh]
**.e*.datarate = 10Gbps
**.e*.delay = 50us

**.tcp.sackSupport = false
**.tcp.tcpAlgorithmClass = "DCTCP"

**.routerCore.ppp[20].queueType           = "inet.examples.netperfmeter.REDQueue"
**.routerCore.ppp[20].queue.red.wq        = 1.0
**.routerCore.ppp[20].queue.red.minths     = "28"
**.routerCore.ppp[20].queue.red.maxths     = "29"
**.routerCore.ppp[20].queue.red.maxps      = "1.0"
**.routerCore.ppp[20].queue.red.pkrates    = "1.0"
**.routerCore.ppp[20].queue.red.marks = "1"
**.routerCore.ppp[20].queueframeCapacity = 500

**.client21.numTcpApps = 40
**.client21.tcpApp[*].typename = "TCPSinkApp"
**.client21.tcpApp[0].localPort = 1000
**.client21.tcpApp[1].localPort = 1001
**.client21.tcpApp[2].localPort = 1002
**.client21.tcpApp[3].localPort = 1003
**.client21.tcpApp[4].localPort = 1004
**.client21.tcpApp[5].localPort = 1005
**.client21.tcpApp[6].localPort = 1006
**.client21.tcpApp[7].localPort = 1007
**.client21.tcpApp[8].localPort = 1008
**.client21.tcpApp[9].localPort = 1009
**.client21.tcpApp[10].localPort = 10010
**.client21.tcpApp[11].localPort = 10011
**.client21.tcpApp[12].localPort = 10012
**.client21.tcpApp[13].localPort = 10013
**.client21.tcpApp[14].localPort = 10014
**.client21.tcpApp[15].localPort = 10015
**.client21.tcpApp[16].localPort = 10016
**.client21.tcpApp[17].localPort = 10017
**.client21.tcpApp[18].localPort = 10018
**.client21.tcpApp[19].localPort = 10019
**.client21.tcpApp[20].localPort = 10020
**.client21.tcpApp[21].localPort = 10021
**.client21.tcpApp[22].localPort = 10022
**.client21.tcpApp[23].localPort = 10023
**.client21.tcpApp[24].localPort = 10024
**.client21.tcpApp[25].localPort = 10025
**.client21.tcpApp[26].localPort = 10026
**.client21.tcpApp[27].localPort = 10027
**.client21.tcpApp[28].localPort = 10028
**.client21.tcpApp[29].localPort = 10029
**.client21.tcpApp[30].localPort = 10030
**.client21.tcpApp[31].localPort = 10031
**.client21.tcpApp[32].localPort = 10032
**.client21.tcpApp[33].localPort = 10033
**.client21.tcpApp[34].localPort = 10034
**.client21.tcpApp[35].localPort = 10035
**.client21.tcpApp[36].localPort = 10036
**.client21.tcpApp[37].localPort = 10037
**.client21.tcpApp[38].localPort = 10038
**.client21.tcpApp[39].localPort = 10039
#**.tcp.windowScalingSupport = true
#**.tcp.advertisedWindow = 350000
**.client1*.numTcpApps = 2
**.client1*.tcpApp[*].typename = "TCPSessionApp"
**.client1*.tcpApp[*].active = true
**.client1*.tcpApp[*].localPort = -1
**.client1*.tcpApp[*].connectAddress = "client21"
**.client1*.tcpApp[*].tOpen = 1s
**.client1*.tcpApp[*].sendBytes = 100MiB
**.client1*.tcpApp[*].sendScript = ""
**.client1*.tcpApp[*].tClose = 0s
**.client1*.tcpApp[*].tSend = 3s

**.client11.tcpApp[0].connectPort = 1000
**.client12.tcpApp[0].connectPort = 1001
**.client13.tcpApp[0].connectPort = 1002
**.client14.tcpApp[0].connectPort = 1003
**.client15.tcpApp[0].connectPort = 1004
**.client16.tcpApp[0].connectPort = 1005
**.client17.tcpApp[0].connectPort = 1006
**.client18.tcpApp[0].connectPort = 1007
**.client19.tcpApp[0].connectPort = 1008
**.client110.tcpApp[0].connectPort = 1009
**.client111.tcpApp[0].connectPort = 10010
**.client112.tcpApp[0].connectPort = 10011
**.client113.tcpApp[0].connectPort = 10012
**.client114.tcpApp[0].connectPort = 10013
**.client115.tcpApp[0].connectPort = 10014
**.client116.tcpApp[0].connectPort = 10015
**.client117.tcpApp[0].connectPort = 10016
**.client118.tcpApp[0].connectPort = 10017
**.client119.tcpApp[0].connectPort = 10018
**.client120.tcpApp[0].connectPort = 10019

**.client11.tcpApp[1].connectPort = 10020
**.client12.tcpApp[1].connectPort = 10021
**.client13.tcpApp[1].connectPort = 10022